# CIF file generated by openbabel 2.4.90, see http://openbabel.sf.net
data_I
_chemical_name_common ''
_cell_length_a 39.222
_cell_length_b 26.018
_cell_length_c 27.887
_cell_angle_alpha 90
_cell_angle_beta 90
_cell_angle_gamma 90
_space_group_name_H-M_alt 'P 1'
_space_group_name_Hall 'P 1'
loop_
    _symmetry_equiv_pos_as_xyz
    x,y,z
loop_
    _atom_site_label
    _atom_site_type_symbol
    _atom_site_fract_x
    _atom_site_fract_y
    _atom_site_fract_z
    _atom_site_occupancy
    O0      O    0.97310   0.38070   0.55130   1.000
    O1      O    0.03140   0.09590   0.58160   1.000
    O2      O    0.97340   0.39880   0.67280   1.000
    O3      O    0.03126   0.11280   0.70830   1.000
    O4      O    0.08440   0.09640   0.61410   1.000
    C5      C    0.06060   0.07680   0.58750   1.000
    O6      O    0.08330   0.10610   0.67770   1.000
    C7      C    0.06130   0.09450   0.70990   1.000
    O8      O    0.02020   0.43920   0.62740   1.000
    N9      N    0.03650   0.02740   0.69200   1.000
    C10     C    0.94940   0.41070   0.55840   1.000
    C11     C    0.01950   0.07210   0.68880   1.000
    C12     C    0.07190   0.02240   0.70900   1.000
    C13     C    0.99190   0.43490   0.65410   1.000
    O14     O    0.93460   0.44580   0.53580   1.000
    O15     O    0.53140   0.59590   0.58160   1.000
    O16     O    0.46860   0.40410   0.58160   1.000
    O17     O    0.78140   0.65410   0.83160   1.000
    O18     O    0.71860   0.84590   0.83160   1.000
    O19     O    0.02690   0.61930   0.55130   1.000
    O20     O    0.22310   0.86930   0.80130   1.000
    O21     O    0.27690   0.63070   0.80130   1.000
    O22     O    0.47310   0.38070   0.05130   1.000
    O23     O    0.52690   0.61930   0.05130   1.000
    O24     O    0.72310   0.86930   0.30130   1.000
    O25     O    0.77690   0.63070   0.30130   1.000
    O26     O    0.97310   0.88070   0.05130   1.000
    O27     O    0.02690   0.11930   0.05130   1.000
    O28     O    0.22310   0.36930   0.30130   1.000
    O29     O    0.27690   0.13070   0.30130   1.000
    O30     O    0.47310   0.88070   0.55130   1.000
    O31     O    0.52690   0.11930   0.55130   1.000
    O32     O    0.72310   0.36930   0.80130   1.000
    O33     O    0.77690   0.13070   0.80130   1.000
    O34     O    0.96860   0.90410   0.58160   1.000
    O35     O    0.28140   0.15410   0.83160   1.000
    O36     O    0.21860   0.34590   0.83160   1.000
    O37     O    0.53140   0.09590   0.08160   1.000
    O38     O    0.46860   0.90410   0.08160   1.000
    O39     O    0.78140   0.15410   0.33160   1.000
    O40     O    0.71860   0.34590   0.33160   1.000
    O41     O    0.03140   0.59590   0.08160   1.000
    O42     O    0.96860   0.40410   0.08160   1.000
    O43     O    0.28140   0.65410   0.33160   1.000
    O44     O    0.21860   0.84590   0.33160   1.000
    O45     O    0.02660   0.60120   0.67280   1.000
    O46     O    0.22340   0.85120   0.92280   1.000
    O47     O    0.27660   0.64880   0.92280   1.000
    O48     O    0.47340   0.39880   0.17280   1.000
    O49     O    0.52660   0.60120   0.17280   1.000
    O50     O    0.72340   0.85120   0.42280   1.000
    O51     O    0.77660   0.64880   0.42280   1.000
    O52     O    0.97340   0.89880   0.17280   1.000
    O53     O    0.02660   0.10120   0.17280   1.000
    O54     O    0.22340   0.35120   0.42280   1.000
    O55     O    0.27660   0.14880   0.42280   1.000
    O56     O    0.47340   0.89880   0.67280   1.000
    O57     O    0.52660   0.10120   0.67280   1.000
    O58     O    0.72340   0.35120   0.92280   1.000
    O59     O    0.77660   0.14880   0.92280   1.000
    O60     O    0.96874   0.88720   0.70830   1.000
    O61     O    0.28126   0.13720   0.95830   1.000
    O62     O    0.21874   0.36280   0.95830   1.000
    O63     O    0.53126   0.11280   0.20830   1.000
    O64     O    0.46874   0.88720   0.20830   1.000
    O65     O    0.78126   0.13720   0.45830   1.000
    O66     O    0.71874   0.36280   0.45830   1.000
    O67     O    0.03126   0.61280   0.20830   1.000
    O68     O    0.96874   0.38720   0.20830   1.000
    O69     O    0.28126   0.63720   0.45830   1.000
    O70     O    0.21874   0.86280   0.45830   1.000
    O71     O    0.53126   0.61280   0.70830   1.000
    O72     O    0.46874   0.38720   0.70830   1.000
    O73     O    0.78126   0.63720   0.95830   1.000
    O74     O    0.71874   0.86280   0.95830   1.000
    C75     C    0.43870   0.90550   0.20990   1.000
    C76     C    0.81130   0.15550   0.45990   1.000
    C77     C    0.68870   0.34450   0.45990   1.000
    C78     C    0.06130   0.59450   0.20990   1.000
    C79     C    0.93870   0.40550   0.20990   1.000
    C80     C    0.31130   0.65550   0.45990   1.000
    C81     C    0.18870   0.84450   0.45990   1.000
    C82     C    0.56130   0.59450   0.70990   1.000
    C83     C    0.43870   0.40550   0.70990   1.000
    C84     C    0.81130   0.65550   0.95990   1.000
    C85     C    0.68870   0.84450   0.95990   1.000
    O86     O    0.97980   0.56080   0.62740   1.000
    O87     O    0.27020   0.81080   0.87740   1.000
    O88     O    0.22980   0.68920   0.87740   1.000
    O89     O    0.52020   0.43920   0.12740   1.000
    O90     O    0.47980   0.56080   0.12740   1.000
    O91     O    0.77020   0.81080   0.37740   1.000
    O92     O    0.72980   0.68920   0.37740   1.000
    O93     O    0.02020   0.93920   0.12740   1.000
    O94     O    0.97980   0.06080   0.12740   1.000
    O95     O    0.27020   0.31080   0.37740   1.000
    O96     O    0.22980   0.18920   0.37740   1.000
    O97     O    0.91560   0.90360   0.61410   1.000
    O98     O    0.33440   0.15360   0.86410   1.000
    O99     O    0.16560   0.34640   0.86410   1.000
    O100    O    0.58440   0.09640   0.11410   1.000
    O101    O    0.41560   0.90360   0.11410   1.000
    O102    O    0.83440   0.15360   0.36410   1.000
    O103    O    0.66560   0.34640   0.36410   1.000
    O104    O    0.08440   0.59640   0.11410   1.000
    O105    O    0.91560   0.40360   0.11410   1.000
    O106    O    0.33440   0.65360   0.36410   1.000
    O107    O    0.16560   0.84640   0.36410   1.000
    O108    O    0.58440   0.59640   0.61410   1.000
    O109    O    0.41560   0.40360   0.61410   1.000
    O110    O    0.83440   0.65360   0.86410   1.000
    O111    O    0.66560   0.84640   0.86410   1.000
    C112    C    0.93940   0.92320   0.58750   1.000
    C113    C    0.31060   0.17320   0.83750   1.000
    C114    C    0.18940   0.32680   0.83750   1.000
    C115    C    0.56060   0.07680   0.08750   1.000
    C116    C    0.43940   0.92320   0.08750   1.000
    C117    C    0.81060   0.17320   0.33750   1.000
    C118    C    0.68940   0.32680   0.33750   1.000
    C119    C    0.06060   0.57680   0.08750   1.000
    C120    C    0.93940   0.42320   0.08750   1.000
    C121    C    0.31060   0.67320   0.33750   1.000
    C122    C    0.18940   0.82680   0.33750   1.000
    C123    C    0.56060   0.57680   0.58750   1.000
    C124    C    0.43940   0.42320   0.58750   1.000
    C125    C    0.81060   0.67320   0.83750   1.000
    C126    C    0.68940   0.82680   0.83750   1.000
    O127    O    0.91670   0.89390   0.67770   1.000
    O128    O    0.33330   0.14390   0.92770   1.000
    O129    O    0.16670   0.35610   0.92770   1.000
    O130    O    0.58330   0.10610   0.17770   1.000
    O131    O    0.41670   0.89390   0.17770   1.000
    O132    O    0.83330   0.14390   0.42770   1.000
    O133    O    0.66670   0.35610   0.42770   1.000
    O134    O    0.08330   0.60610   0.17770   1.000
    O135    O    0.91670   0.39390   0.17770   1.000
    O136    O    0.33330   0.64390   0.42770   1.000
    O137    O    0.16670   0.85610   0.42770   1.000
    O138    O    0.58330   0.60610   0.67770   1.000
    O139    O    0.41670   0.39390   0.67770   1.000
    O140    O    0.83330   0.64390   0.92770   1.000
    O141    O    0.66670   0.85610   0.92770   1.000
    C142    C    0.93870   0.90550   0.70990   1.000
    C143    C    0.31130   0.15550   0.95990   1.000
    C144    C    0.18870   0.34450   0.95990   1.000
    C145    C    0.56130   0.09450   0.20990   1.000
    O146    O    0.52020   0.93920   0.62740   1.000
    O147    O    0.47980   0.06080   0.62740   1.000
    O148    O    0.77020   0.31080   0.87740   1.000
    O149    O    0.72980   0.18920   0.87740   1.000
    N150    N    0.96350   0.97260   0.69200   1.000
    N151    N    0.28650   0.22260   0.94200   1.000
    N152    N    0.21350   0.27740   0.94200   1.000
    N153    N    0.53650   0.02740   0.19200   1.000
    N154    N    0.46350   0.97260   0.19200   1.000
    N155    N    0.78650   0.22260   0.44200   1.000
    N156    N    0.71350   0.27740   0.44200   1.000
    N157    N    0.03650   0.52740   0.19200   1.000
    N158    N    0.96350   0.47260   0.19200   1.000
    N159    N    0.28650   0.72260   0.44200   1.000
    N160    N    0.21350   0.77740   0.44200   1.000
    N161    N    0.53650   0.52740   0.69200   1.000
    N162    N    0.46350   0.47260   0.69200   1.000
    N163    N    0.78650   0.72260   0.94200   1.000
    N164    N    0.71350   0.77740   0.94200   1.000
    C165    C    0.05060   0.58930   0.55840   1.000
    C166    C    0.19940   0.83930   0.80840   1.000
    C167    C    0.30060   0.66070   0.80840   1.000
    C168    C    0.44940   0.41070   0.05840   1.000
    C169    C    0.55060   0.58930   0.05840   1.000
    C170    C    0.69940   0.83930   0.30840   1.000
    C171    C    0.80060   0.66070   0.30840   1.000
    C172    C    0.94940   0.91070   0.05840   1.000
    C173    C    0.05060   0.08930   0.05840   1.000
    C174    C    0.19940   0.33930   0.30840   1.000
    C175    C    0.30060   0.16070   0.30840   1.000
    C176    C    0.44940   0.91070   0.55840   1.000
    C177    C    0.55060   0.08930   0.55840   1.000
    C178    C    0.69940   0.33930   0.80840   1.000
    C179    C    0.80060   0.16070   0.80840   1.000
    C180    C    0.98050   0.92790   0.68880   1.000
    C181    C    0.26950   0.17790   0.93880   1.000
    C182    C    0.23050   0.32210   0.93880   1.000
    C183    C    0.51950   0.07210   0.18880   1.000
    C184    C    0.48050   0.92790   0.18880   1.000
    C185    C    0.76950   0.17790   0.43880   1.000
    C186    C    0.73050   0.32210   0.43880   1.000
    C187    C    0.01950   0.57210   0.18880   1.000
    C188    C    0.98050   0.42790   0.18880   1.000
    C189    C    0.26950   0.67790   0.43880   1.000
    C190    C    0.23050   0.82210   0.43880   1.000
    C191    C    0.51950   0.57210   0.68880   1.000
    C192    C    0.48050   0.42790   0.68880   1.000
    C193    C    0.76950   0.67790   0.93880   1.000
    C194    C    0.73050   0.82210   0.93880   1.000
    C195    C    0.92810   0.97760   0.70900   1.000
    C196    C    0.32190   0.22760   0.95900   1.000
    C197    C    0.17810   0.27240   0.95900   1.000
    C198    C    0.57190   0.02240   0.20900   1.000
    C199    C    0.42810   0.97760   0.20900   1.000
    C200    C    0.82190   0.22760   0.45900   1.000
    C201    C    0.67810   0.27240   0.45900   1.000
    C202    C    0.07190   0.52240   0.20900   1.000
    C203    C    0.92810   0.47760   0.20900   1.000
    C204    C    0.32190   0.72760   0.45900   1.000
    C205    C    0.17810   0.77240   0.45900   1.000
    C206    C    0.57190   0.52240   0.70900   1.000
    C207    C    0.42810   0.47760   0.70900   1.000
    C208    C    0.82190   0.72760   0.95900   1.000
    C209    C    0.67810   0.77240   0.95900   1.000
    C210    C    0.00810   0.56510   0.65410   1.000
    C211    C    0.24190   0.81510   0.90410   1.000
    C212    C    0.25810   0.68490   0.90410   1.000
    C213    C    0.49190   0.43490   0.15410   1.000
    C214    C    0.50810   0.56510   0.15410   1.000
    C215    C    0.74190   0.81510   0.40410   1.000
    C216    C    0.75810   0.68490   0.40410   1.000
    C217    C    0.99190   0.93490   0.15410   1.000
    C218    C    0.00810   0.06510   0.15410   1.000
    C219    C    0.24190   0.31510   0.40410   1.000
    C220    C    0.25810   0.18490   0.40410   1.000
    C221    C    0.49190   0.93490   0.65410   1.000
    C222    C    0.50810   0.06510   0.65410   1.000
    C223    C    0.74190   0.31510   0.90410   1.000
    C224    C    0.75810   0.18490   0.90410   1.000
    O225    O    0.06540   0.55420   0.53580   1.000
    O226    O    0.18460   0.80420   0.78580   1.000
    O227    O    0.31540   0.69580   0.78580   1.000
    O228    O    0.43460   0.44580   0.03580   1.000
    O229    O    0.56540   0.55420   0.03580   1.000
    O230    O    0.68460   0.80420   0.28580   1.000
    O231    O    0.81540   0.69580   0.28580   1.000
    O232    O    0.93460   0.94580   0.03580   1.000
    O233    O    0.06540   0.05420   0.03580   1.000
    O234    O    0.18460   0.30420   0.28580   1.000
    O235    O    0.31540   0.19580   0.28580   1.000
    O236    O    0.43460   0.94580   0.53580   1.000
    O237    O    0.56540   0.05420   0.53580   1.000
    O238    O    0.68460   0.30420   0.78580   1.000
    O239    O    0.81540   0.19580   0.78580   1.000
loop_
    _geom_bond_atom_site_label_1
    _geom_bond_atom_site_label_2
    _geom_bond_distance
    _geom_bond_site_symmetry_2
    _ccdc_geom_bond_type
    O228   C168      1.25226      .   S
    O229   C169      1.25226      .   S
    O232   C172      1.25226      .   S
    O233   C173      1.25226      .   S
    O22    C168      1.22985      .   S
    O23    C169      1.22985      .   S
    O26    C172      1.22985      .   S
    O27    C173      1.22985      .   S
    O37    C115      1.25924      .   S
    O42    C120      1.25924      .   S
    O38    C116      1.25924      .   S
    O41    C119      1.25924      .   S
    C120   O105      1.29680      .   S
    C119   O104      1.29680      .   S
    C116   O101      1.29680      .   S
    C115   O100      1.29680      .   S
    O93    C217      1.34126  1_455   S
    O90    C214      1.34126      .   S
    O94    C218      1.34126  1_655   S
    O89    C213      1.34126      .   S
    C214   O49       1.29640      .   S
    C213   O48       1.29640      .   S
    C218   O53       1.29640      .   S
    C217   O52       1.29640      .   S
    O130   C145      1.28140      .   S
    O135   C79       1.28140      .   S
    O134   C78       1.28140      .   S
    O131   C75       1.28140      .   S
    C184   N154      1.34355      .   S
    C184   O64       1.27664      .   S
    C183   N153      1.34355      .   S
    C183   O63       1.27664      .   S
    C188   N158      1.34355      .   S
    C188   O68       1.27664      .   S
    C187   N157      1.34355      .   S
    C187   O67       1.27664      .   S
    N154   C199      1.47292      .   S
    N157   C202      1.47292      .   S
    N153   C198      1.47292      .   S
    N158   C203      1.47292      .   S
    O68    C79       1.27158      .   S
    O64    C75       1.27158      .   S
    O63    C145      1.27158      .   S
    O67    C78       1.27158      .   S
    O230   C170      1.25226      .   S
    O231   C171      1.25226      .   S
    O234   C174      1.25226      .   S
    O235   C175      1.25226      .   S
    O25    C171      1.22985      .   S
    O24    C170      1.22985      .   S
    O28    C174      1.22985      .   S
    O29    C175      1.22985      .   S
    O44    C122      1.25924      .   S
    O43    C121      1.25924      .   S
    O40    C118      1.25924      .   S
    O39    C117      1.25924      .   S
    C121   O106      1.29680      .   S
    C122   O107      1.29680      .   S
    C118   O103      1.29680      .   S
    C117   O102      1.29680      .   S
    O96    C220      1.34126      .   S
    O92    C216      1.34126      .   S
    O95    C219      1.34126      .   S
    O91    C215      1.34126      .   S
    C220   O55       1.29640      .   S
    C215   O50       1.29640      .   S
    C216   O51       1.29640      .   S
    C219   O54       1.29640      .   S
    O133   C77       1.28140      .   S
    O132   C76       1.28140      .   S
    O137   C81       1.28140      .   S
    O136   C80       1.28140      .   S
    C190   N160      1.34355      .   S
    C190   O70       1.27664      .   S
    C189   N159      1.34355      .   S
    C189   O69       1.27664      .   S
    C186   N156      1.34355      .   S
    C186   O66       1.27664      .   S
    C185   N155      1.34355      .   S
    C185   O65       1.27664      .   S
    N156   C201      1.47292      .   S
    N155   C200      1.47292      .   S
    N159   C204      1.47292      .   S
    N160   C205      1.47292      .   S
    O70    C81       1.27158      .   S
    O69    C80       1.27158      .   S
    O66    C77       1.27158      .   S
    O65    C76       1.27158      .   S
    O225   C165      1.25226      .   S
    O237   C177      1.25226      .   S
    O236   C176      1.25226      .   S
    O14    C10       1.25226      .   S
    O0     C10       1.22985      .   S
    O31    C177      1.22985      .   S
    O19    C165      1.22985      .   S
    O30    C176      1.22985      .   S
    O1     C5        1.25924      .   S
    O34    C112      1.25924      .   S
    O15    C123      1.25924      .   S
    O16    C124      1.25924      .   S
    C5     O4        1.29680      .   S
    C123   O108      1.29680      .   S
    C112   O97       1.29680      .   S
    C124   O109      1.29680      .   S
    O8     C13       1.34126  1_455   S
    O86    C210      1.34126  1_655   S
    O146   C221      1.34126      .   S
    O147   C222      1.34126      .   S
    C13    O2        1.29640      .   S
    C210   O45       1.29640      .   S
    C221   O56       1.29640      .   S
    C222   O57       1.29640      .   S
    O6     C7        1.28140      .   S
    O138   C82       1.28140      .   S
    O127   C142      1.28140      .   S
    O139   C83       1.28140      .   S
    C11    N9        1.34355      .   S
    C11    O3        1.27664      .   S
    C191   N161      1.34355      .   S
    C191   O71       1.27664      .   S
    C192   N162      1.34355      .   S
    C192   O72       1.27664      .   S
    C180   N150      1.34355      .   S
    C180   O60       1.27664      .   S
    N9     C12       1.47292      .   S
    N161   C206      1.47292      .   S
    N150   C195      1.47292      .   S
    N162   C207      1.47292      .   S
    O3     C7        1.27158      .   S
    O72    C83       1.27158      .   S
    O71    C82       1.27158      .   S
    O60    C142      1.27158      .   S
    O238   C178      1.25226      .   S
    O227   C167      1.25226      .   S
    O226   C166      1.25226      .   S
    O239   C179      1.25226      .   S
    O32    C178      1.22985      .   S
    O33    C179      1.22985      .   S
    O20    C166      1.22985      .   S
    O21    C167      1.22985      .   S
    O35    C113      1.25924      .   S
    O36    C114      1.25924      .   S
    O17    C125      1.25924      .   S
    O18    C126      1.25924      .   S
    C113   O98       1.29680      .   S
    C114   O99       1.29680      .   S
    C125   O110      1.29680      .   S
    C126   O111      1.29680      .   S
    O88    C212      1.34126      .   S
    O87    C211      1.34126      .   S
    O148   C223      1.34126      .   S
    O149   C224      1.34126      .   S
    C224   O59       1.29640      .   S
    C223   O58       1.29640      .   S
    C212   O47       1.29640      .   S
    C211   O46       1.29640      .   S
    O129   C144      1.28140      .   S
    O128   C143      1.28140      .   S
    O140   C84       1.28140      .   S
    O141   C85       1.28140      .   S
    C194   N164      1.34355      .   S
    C194   O74       1.27664      .   S
    C193   N163      1.34355      .   S
    C193   O73       1.27664      .   S
    C182   N152      1.34355      .   S
    C182   O62       1.27664      .   S
    C181   N151      1.34355      .   S
    C181   O61       1.27664      .   S
    N151   C196      1.47292      .   S
    N164   C209      1.47292      .   S
    N163   C208      1.47292      .   S
    N152   C197      1.47292      .   S
    O74    C85       1.27158      .   S
    O73    C84       1.27158      .   S
    O61    C143      1.27158      .   S
    O62    C144      1.27158      .   S
