# CIF file generated by openbabel 2.4.90, see http://openbabel.sf.net
data_I
_chemical_name_common ''
_cell_length_a 39.222
_cell_length_b 26.018
_cell_length_c 27.887
_cell_angle_alpha 90
_cell_angle_beta 90
_cell_angle_gamma 90
_space_group_name_H-M_alt 'P 1'
_space_group_name_Hall 'P 1'
loop_
    _symmetry_equiv_pos_as_xyz
    x,y,z
loop_
    _atom_site_label
    _atom_site_type_symbol
    _atom_site_fract_x
    _atom_site_fract_y
    _atom_site_fract_z
    _atom_site_occupancy
    O0      O    0.97310   0.38070   0.55130   1.000
    O1      O    0.03140   0.09590   0.58160   1.000
    O2      O    0.97340   0.39880   0.67280   1.000
    O3      O    0.03126   0.11280   0.70830   1.000
    C4      C    0.12380   0.42160   0.46680   1.000
    C5      C    0.08540   0.39550   0.73350   1.000
    C6      C    0.91780   0.10480   0.75050   1.000
    C7      C    0.88300   0.09610   0.74860   1.000
    H8      H    0.86670   0.11160   0.72790   1.000
    C9      C    0.00190   0.21360   0.41900   1.000
    N10     N    0.90586   0.03190   0.47350   1.000
    N11     N    0.93159   0.05560   0.50170   1.000
    C12     C    0.91536   0.08830   0.53550   1.000
    C13     C    0.87961   0.08480   0.52810   1.000
    H14     H    0.86260   0.10270   0.54580   1.000
    C15     C    0.87374   0.05000   0.48980   1.000
    N16     N    0.90720   0.04810   0.80460   1.000
    C17     C    0.12390   0.43050   0.77770   1.000
    N18     N    0.09490   0.45070   0.79150   1.000
    C19     C    0.11780   0.38570   0.50180   1.000
    H20     H    0.13430   0.36870   0.52100   1.000
    N21     N    0.07180   0.42850   0.76420   1.000
    N22     N    0.09250   0.43700   0.44950   1.000
    N23     N    0.06740   0.41130   0.47150   1.000
    C24     C    0.99610   0.24630   0.38030   1.000
    H25     H    0.98990   0.28150   0.38150   1.000
    C26     C    0.11940   0.39550   0.74070   1.000
    H27     H    0.13630   0.37600   0.72440   1.000
    N28     N    0.00960   0.16550   0.40180   1.000
    N29     N    0.00920   0.16860   0.35400   1.000
    N30     N    0.93150   0.07540   0.78400   1.000
    C31     C    0.08290   0.37910   0.50350   1.000
    C32     C    0.00110   0.21720   0.34060   1.000
    C33     C    0.87770   0.06020   0.78320   1.000
    O34     O    0.92910   0.19320   0.48150   1.000
    N35     N    0.91200   0.19790   0.40500   1.000
    C36     C    0.91870   0.21710   0.44850   1.000
    H37     H    0.91480   0.25280   0.45330   1.000
    C38     C    0.91560   0.14600   0.39310   1.000
    H39     H    0.92320   0.12680   0.42140   1.000
    H40     H    0.93240   0.14230   0.36740   1.000
    H41     H    0.89360   0.13240   0.38230   1.000
    C42     C    0.90330   0.23490   0.36330   1.000
    H43     H    0.90270   0.27030   0.37520   1.000
    H44     H    0.88090   0.22580   0.35000   1.000
    H45     H    0.92060   0.23190   0.33810   1.000
    O46     O    0.08440   0.09640   0.61410   1.000
    C47     C    0.06060   0.07680   0.58750   1.000
    O48     O    0.08330   0.10610   0.67770   1.000
    C49     C    0.06130   0.09450   0.70990   1.000
    O50     O    0.02020   0.43920   0.62740   1.000
    N51     N    0.03650   0.02740   0.69200   1.000
    C52     C    0.94940   0.41070   0.55840   1.000
    C53     C    0.01950   0.07210   0.68880   1.000
    C54     C    0.07190   0.02240   0.70900   1.000
    C55     C    0.99190   0.43490   0.65410   1.000
    O56     O    0.93460   0.44580   0.53580   1.000
    N57     N    0.91630   0.98890   0.37820   1.000
    O58     O    0.92920   0.98990   0.88270   1.000
    O59     O    0.92650   0.23900   0.78340   1.000
    C60     C    0.95270   0.00340   0.38050   1.000
    C61     C    0.91100   0.93210   0.37480   1.000
    N62     N    0.99890   0.06890   0.46400   1.000
    C63     C    0.00000   0.00000   0.49470   1.000
    C64     C    0.04460   0.09440   0.46380   1.000
    N65     N    0.91500   0.23250   0.86340   1.000
    C66     C    0.92970   0.22020   0.82010   1.000
    C67     C    0.91490   0.19710   0.90880   1.000
    C68     C    0.89760   0.28350   0.88700   1.000
    O69     O    0.00060   0.42760   0.79830   1.000
    O70     O    0.00000   0.50000   0.75900   1.000
    O71     O    0.00020   0.38100   0.42900   1.000
    O72     O    0.92600   0.40100   0.38800   1.000
    C73     C    0.99900   0.40400   0.38800   1.000
    C74     C    0.94900   0.39200   0.40100   1.000
    O75     O    0.00270   0.04240   0.78090   1.000
    C76     C    0.00060   0.45600   0.75900   1.000
    C77     C    0.95730   0.40800   0.78800   1.000
    O78     O    0.53140   0.59590   0.58160   1.000
    O79     O    0.46860   0.40410   0.58160   1.000
    O80     O    0.78140   0.65410   0.83160   1.000
    O81     O    0.71860   0.84590   0.83160   1.000
    C82     C    0.11700   0.90390   0.74860   1.000
    C83     C    0.13300   0.15390   0.99860   1.000
    O84     O    0.02690   0.61930   0.55130   1.000
    O85     O    0.22310   0.86930   0.80130   1.000
    O86     O    0.27690   0.63070   0.80130   1.000
    O87     O    0.47310   0.38070   0.05130   1.000
    O88     O    0.52690   0.61930   0.05130   1.000
    O89     O    0.72310   0.86930   0.30130   1.000
    O90     O    0.77690   0.63070   0.30130   1.000
    O91     O    0.97310   0.88070   0.05130   1.000
    O92     O    0.02690   0.11930   0.05130   1.000
    O93     O    0.22310   0.36930   0.30130   1.000
    O94     O    0.27690   0.13070   0.30130   1.000
    O95     O    0.47310   0.88070   0.55130   1.000
    O96     O    0.52690   0.11930   0.55130   1.000
    O97     O    0.72310   0.36930   0.80130   1.000
    O98     O    0.77690   0.13070   0.80130   1.000
    O99     O    0.96860   0.90410   0.58160   1.000
    O100    O    0.28140   0.15410   0.83160   1.000
    O101    O    0.21860   0.34590   0.83160   1.000
    O102    O    0.53140   0.09590   0.08160   1.000
    O103    O    0.46860   0.90410   0.08160   1.000
    O104    O    0.78140   0.15410   0.33160   1.000
    O105    O    0.71860   0.34590   0.33160   1.000
    O106    O    0.03140   0.59590   0.08160   1.000
    O107    O    0.96860   0.40410   0.08160   1.000
    O108    O    0.28140   0.65410   0.33160   1.000
    O109    O    0.21860   0.84590   0.33160   1.000
    H110    H    0.88430   0.38130   0.77100   1.000
    H111    H    0.61570   0.11870   0.77100   1.000
    N112    N    0.92820   0.57150   0.76420   1.000
    N113    N    0.32180   0.82150   0.01420   1.000
    N114    N    0.17820   0.67850   0.01420   1.000
    N115    N    0.57180   0.42850   0.26420   1.000
    N116    N    0.42820   0.57150   0.26420   1.000
    N117    N    0.82180   0.82150   0.51420   1.000
    N118    N    0.67820   0.67850   0.51420   1.000
    N119    N    0.07180   0.92850   0.26420   1.000
    N120    N    0.92820   0.07150   0.26420   1.000
    N121    N    0.32180   0.32150   0.51420   1.000
    N122    N    0.17820   0.17850   0.51420   1.000
    N123    N    0.57180   0.92850   0.76420   1.000
    O124    O    0.02660   0.60120   0.67280   1.000
    O125    O    0.22340   0.85120   0.92280   1.000
    O126    O    0.27660   0.64880   0.92280   1.000
    O127    O    0.47340   0.39880   0.17280   1.000
    O128    O    0.52660   0.60120   0.17280   1.000
    O129    O    0.72340   0.85120   0.42280   1.000
    O130    O    0.77660   0.64880   0.42280   1.000
    O131    O    0.97340   0.89880   0.17280   1.000
    O132    O    0.02660   0.10120   0.17280   1.000
    O133    O    0.22340   0.35120   0.42280   1.000
    O134    O    0.27660   0.14880   0.42280   1.000
    O135    O    0.47340   0.89880   0.67280   1.000
    O136    O    0.52660   0.10120   0.67280   1.000
    O137    O    0.72340   0.35120   0.92280   1.000
    O138    O    0.77660   0.14880   0.92280   1.000
    O139    O    0.96874   0.88720   0.70830   1.000
    O140    O    0.28126   0.13720   0.95830   1.000
    O141    O    0.21874   0.36280   0.95830   1.000
    O142    O    0.53126   0.11280   0.20830   1.000
    O143    O    0.46874   0.88720   0.20830   1.000
    O144    O    0.78126   0.13720   0.45830   1.000
    O145    O    0.71874   0.36280   0.45830   1.000
    O146    O    0.03126   0.61280   0.20830   1.000
    O147    O    0.96874   0.38720   0.20830   1.000
    O148    O    0.28126   0.63720   0.45830   1.000
    O149    O    0.21874   0.86280   0.45830   1.000
    O150    O    0.53126   0.61280   0.70830   1.000
    O151    O    0.46874   0.38720   0.70830   1.000
    O152    O    0.78126   0.63720   0.95830   1.000
    O153    O    0.71874   0.86280   0.95830   1.000
    C154    C    0.87620   0.57840   0.46680   1.000
    C155    C    0.37380   0.82840   0.71680   1.000
    C156    C    0.12620   0.67160   0.71680   1.000
    C157    C    0.62380   0.42160   0.96680   1.000
    C158    C    0.37620   0.57840   0.96680   1.000
    C159    C    0.87380   0.82840   0.21680   1.000
    C160    C    0.62620   0.67160   0.21680   1.000
    C161    C    0.12380   0.92160   0.96680   1.000
    C162    C    0.87620   0.07840   0.96680   1.000
    C163    C    0.37380   0.32840   0.21680   1.000
    C164    C    0.12620   0.17160   0.21680   1.000
    C165    C    0.62380   0.92160   0.46680   1.000
    C166    C    0.37620   0.07840   0.46680   1.000
    C167    C    0.87380   0.32840   0.71680   1.000
    C168    C    0.62620   0.17160   0.71680   1.000
    C169    C    0.91460   0.60450   0.73350   1.000
    C170    C    0.33540   0.85450   0.98350   1.000
    C171    C    0.16460   0.64550   0.98350   1.000
    C172    C    0.58540   0.39550   0.23350   1.000
    C173    C    0.41460   0.60450   0.23350   1.000
    C174    C    0.83540   0.85450   0.48350   1.000
    C175    C    0.66460   0.64550   0.48350   1.000
    C176    C    0.08540   0.89550   0.23350   1.000
    C177    C    0.91460   0.10450   0.23350   1.000
    C178    C    0.33540   0.35450   0.48350   1.000
    C179    C    0.16460   0.14550   0.48350   1.000
    C180    C    0.58540   0.89550   0.73350   1.000
    C181    C    0.41460   0.10450   0.73350   1.000
    C182    C    0.83540   0.35450   0.98350   1.000
    C183    C    0.66460   0.14550   0.98350   1.000
    C184    C    0.08220   0.89520   0.75050   1.000
    C185    C    0.16780   0.14520   0.00050   1.000
    C186    C    0.33220   0.35480   0.00050   1.000
    C187    C    0.41780   0.10480   0.25050   1.000
    C188    C    0.58220   0.89520   0.25050   1.000
    C189    C    0.66780   0.14520   0.50050   1.000
    C190    C    0.83220   0.35480   0.50050   1.000
    C191    C    0.91780   0.60480   0.25050   1.000
    C192    C    0.08220   0.39520   0.25050   1.000
    C193    C    0.16780   0.64520   0.50050   1.000
    C194    C    0.33220   0.85480   0.50050   1.000
    C195    C    0.41780   0.60480   0.75050   1.000
    C196    C    0.58220   0.39520   0.75050   1.000
    C197    C    0.66780   0.64520   0.00050   1.000
    C198    C    0.83220   0.85480   0.00050   1.000
    C199    C    0.43870   0.90550   0.20990   1.000
    C200    C    0.81130   0.15550   0.45990   1.000
    C201    C    0.68870   0.34450   0.45990   1.000
    C202    C    0.06130   0.59450   0.20990   1.000
    C203    C    0.93870   0.40550   0.20990   1.000
    C204    C    0.31130   0.65550   0.45990   1.000
    C205    C    0.18870   0.84450   0.45990   1.000
    C206    C    0.56130   0.59450   0.70990   1.000
    C207    C    0.43870   0.40550   0.70990   1.000
    C208    C    0.81130   0.65550   0.95990   1.000
    C209    C    0.68870   0.84450   0.95990   1.000
    O210    O    0.97980   0.56080   0.62740   1.000
    O211    O    0.27020   0.81080   0.87740   1.000
    O212    O    0.22980   0.68920   0.87740   1.000
    O213    O    0.52020   0.43920   0.12740   1.000
    O214    O    0.47980   0.56080   0.12740   1.000
    O215    O    0.77020   0.81080   0.37740   1.000
    O216    O    0.72980   0.68920   0.37740   1.000
    O217    O    0.02020   0.93920   0.12740   1.000
    O218    O    0.97980   0.06080   0.12740   1.000
    O219    O    0.27020   0.31080   0.37740   1.000
    O220    O    0.22980   0.18920   0.37740   1.000
    C221    C    0.36700   0.34610   0.99860   1.000
    C222    C    0.38300   0.09610   0.24860   1.000
    C223    C    0.61700   0.90390   0.24860   1.000
    C224    C    0.63300   0.15390   0.49860   1.000
    C225    C    0.86700   0.34610   0.49860   1.000
    C226    C    0.88300   0.59610   0.24860   1.000
    C227    C    0.11700   0.40390   0.24860   1.000
    C228    C    0.13300   0.65390   0.49860   1.000
    C229    C    0.36700   0.84610   0.49860   1.000
    C230    C    0.38300   0.59610   0.74860   1.000
    C231    C    0.61700   0.40390   0.74860   1.000
    C232    C    0.63300   0.65390   0.99860   1.000
    C233    C    0.86700   0.84610   0.99860   1.000
    H234    H    0.13330   0.88840   0.72790   1.000
    H235    H    0.11670   0.13840   0.97790   1.000
    H236    H    0.38330   0.36160   0.97790   1.000
    H237    H    0.36670   0.11160   0.22790   1.000
    H238    H    0.63330   0.88840   0.22790   1.000
    H239    H    0.61670   0.13840   0.47790   1.000
    H240    H    0.88330   0.36160   0.47790   1.000
    H241    H    0.86670   0.61160   0.22790   1.000
    H242    H    0.13330   0.38840   0.22790   1.000
    H243    H    0.11670   0.63840   0.47790   1.000
    H244    H    0.38330   0.86160   0.47790   1.000
    H245    H    0.36670   0.61160   0.72790   1.000
    H246    H    0.63330   0.38840   0.72790   1.000
    H247    H    0.61670   0.63840   0.97790   1.000
    H248    H    0.88330   0.86160   0.97790   1.000
    C249    C    0.99810   0.78640   0.41900   1.000
    C250    C    0.25190   0.03640   0.66900   1.000
    C251    C    0.24810   0.46360   0.66900   1.000
    C252    C    0.50190   0.21360   0.91900   1.000
    C253    C    0.49810   0.78640   0.91900   1.000
    C254    C    0.75190   0.03640   0.16900   1.000
    C255    C    0.74810   0.46360   0.16900   1.000
    C256    C    0.00190   0.71360   0.91900   1.000
    C257    C    0.99810   0.28640   0.91900   1.000
    C258    C    0.25190   0.53640   0.16900   1.000
    C259    C    0.24810   0.96360   0.16900   1.000
    C260    C    0.50190   0.71360   0.41900   1.000
    C261    C    0.49810   0.28640   0.41900   1.000
    C262    C    0.75190   0.53640   0.66900   1.000
    C263    C    0.74810   0.96360   0.66900   1.000
    N264    N    0.09414   0.96810   0.47350   1.000
    N265    N    0.15586   0.21810   0.72350   1.000
    N266    N    0.34414   0.28190   0.72350   1.000
    N267    N    0.40586   0.03190   0.97350   1.000
    N268    N    0.59414   0.96810   0.97350   1.000
    N269    N    0.65586   0.21810   0.22350   1.000
    N270    N    0.84414   0.28190   0.22350   1.000
    N271    N    0.90586   0.53190   0.97350   1.000
    N272    N    0.09414   0.46810   0.97350   1.000
    N273    N    0.15586   0.71810   0.22350   1.000
    N274    N    0.34414   0.78190   0.22350   1.000
    N275    N    0.40586   0.53190   0.47350   1.000
    N276    N    0.59414   0.46810   0.47350   1.000
    N277    N    0.65586   0.71810   0.72350   1.000
    N278    N    0.84414   0.78190   0.72350   1.000
    N279    N    0.06841   0.94440   0.50170   1.000
    N280    N    0.18159   0.19440   0.75170   1.000
    N281    N    0.31841   0.30560   0.75170   1.000
    N282    N    0.43159   0.05560   0.00170   1.000
    N283    N    0.56841   0.94440   0.00170   1.000
    N284    N    0.68159   0.19440   0.25170   1.000
    N285    N    0.81841   0.30560   0.25170   1.000
    N286    N    0.93159   0.55560   0.00170   1.000
    N287    N    0.06841   0.44440   0.00170   1.000
    N288    N    0.18159   0.69440   0.25170   1.000
    N289    N    0.31841   0.80560   0.25170   1.000
    N290    N    0.43159   0.55560   0.50170   1.000
    N291    N    0.56841   0.44440   0.50170   1.000
    N292    N    0.68159   0.69440   0.75170   1.000
    N293    N    0.81841   0.80560   0.75170   1.000
    C294    C    0.08464   0.91170   0.53550   1.000
    C295    C    0.16536   0.16170   0.78550   1.000
    C296    C    0.33464   0.33830   0.78550   1.000
    C297    C    0.41536   0.08830   0.03550   1.000
    C298    C    0.58464   0.91170   0.03550   1.000
    C299    C    0.66536   0.16170   0.28550   1.000
    C300    C    0.83464   0.33830   0.28550   1.000
    C301    C    0.91536   0.58830   0.03550   1.000
    C302    C    0.08464   0.41170   0.03550   1.000
    C303    C    0.16536   0.66170   0.28550   1.000
    C304    C    0.33464   0.83830   0.28550   1.000
    C305    C    0.41536   0.58830   0.53550   1.000
    C306    C    0.58464   0.41170   0.53550   1.000
    C307    C    0.66536   0.66170   0.78550   1.000
    C308    C    0.83464   0.83830   0.78550   1.000
    C309    C    0.12039   0.91520   0.52810   1.000
    C310    C    0.12961   0.16520   0.77810   1.000
    C311    C    0.37039   0.33480   0.77810   1.000
    C312    C    0.37961   0.08480   0.02810   1.000
    C313    C    0.62039   0.91520   0.02810   1.000
    C314    C    0.62961   0.16520   0.27810   1.000
    C315    C    0.87039   0.33480   0.27810   1.000
    C316    C    0.87961   0.58480   0.02810   1.000
    C317    C    0.12039   0.41520   0.02810   1.000
    C318    C    0.12961   0.66520   0.27810   1.000
    C319    C    0.37039   0.83480   0.27810   1.000
    C320    C    0.37961   0.58480   0.52810   1.000
    C321    C    0.62039   0.41520   0.52810   1.000
    C322    C    0.62961   0.66520   0.77810   1.000
    C323    C    0.87039   0.83480   0.77810   1.000
    H324    H    0.13740   0.89730   0.54580   1.000
    H325    H    0.11260   0.14730   0.79580   1.000
    H326    H    0.38740   0.35270   0.79580   1.000
    H327    H    0.36260   0.10270   0.04580   1.000
    H328    H    0.63740   0.89730   0.04580   1.000
    H329    H    0.61260   0.14730   0.29580   1.000
    H330    H    0.88740   0.35270   0.29580   1.000
    H331    H    0.86260   0.60270   0.04580   1.000
    H332    H    0.13740   0.39730   0.04580   1.000
    H333    H    0.11260   0.64730   0.29580   1.000
    H334    H    0.38740   0.85270   0.29580   1.000
    H335    H    0.36260   0.60270   0.54580   1.000
    H336    H    0.63740   0.39730   0.54580   1.000
    H337    H    0.61260   0.64730   0.79580   1.000
    H338    H    0.88740   0.85270   0.79580   1.000
    C339    C    0.12626   0.95000   0.48980   1.000
    C340    C    0.12374   0.20000   0.73980   1.000
    C341    C    0.37626   0.30000   0.73980   1.000
    C342    C    0.37374   0.05000   0.98980   1.000
    C343    C    0.62626   0.95000   0.98980   1.000
    C344    C    0.62374   0.20000   0.23980   1.000
    C345    C    0.87626   0.30000   0.23980   1.000
    C346    C    0.87374   0.55000   0.98980   1.000
    C347    C    0.12626   0.45000   0.98980   1.000
    C348    C    0.12374   0.70000   0.23980   1.000
    C349    C    0.37626   0.80000   0.23980   1.000
    C350    C    0.37374   0.55000   0.48980   1.000
    C351    C    0.62626   0.45000   0.48980   1.000
    C352    C    0.62374   0.70000   0.73980   1.000
    C353    C    0.87626   0.80000   0.73980   1.000
    N354    N    0.09280   0.95190   0.80460   1.000
    N355    N    0.15720   0.20190   0.05460   1.000
    N356    N    0.34280   0.29810   0.05460   1.000
    N357    N    0.40720   0.04810   0.30460   1.000
    N358    N    0.59280   0.95190   0.30460   1.000
    N359    N    0.65720   0.20190   0.55460   1.000
    N360    N    0.84280   0.29810   0.55460   1.000
    N361    N    0.90720   0.54810   0.30460   1.000
    N362    N    0.09280   0.45190   0.30460   1.000
    N363    N    0.15720   0.70190   0.55460   1.000
    N364    N    0.34280   0.79810   0.55460   1.000
    N365    N    0.40720   0.54810   0.80460   1.000
    N366    N    0.59280   0.45190   0.80460   1.000
    N367    N    0.65720   0.70190   0.05460   1.000
    N368    N    0.84280   0.79810   0.05460   1.000
    C369    C    0.87610   0.56950   0.77770   1.000
    C370    C    0.37390   0.81950   0.02770   1.000
    C371    C    0.12610   0.68050   0.02770   1.000
    C372    C    0.62390   0.43050   0.27770   1.000
    C373    C    0.37610   0.56950   0.27770   1.000
    C374    C    0.87390   0.81950   0.52770   1.000
    C375    C    0.62610   0.68050   0.52770   1.000
    C376    C    0.12390   0.93050   0.27770   1.000
    C377    C    0.87610   0.06950   0.27770   1.000
    C378    C    0.37390   0.31950   0.52770   1.000
    C379    C    0.12610   0.18050   0.52770   1.000
    C380    C    0.62390   0.93050   0.77770   1.000
    C381    C    0.37610   0.06950   0.77770   1.000
    C382    C    0.87390   0.31950   0.02770   1.000
    C383    C    0.62610   0.18050   0.02770   1.000
    N384    N    0.90510   0.54930   0.79150   1.000
    N385    N    0.34490   0.79930   0.04150   1.000
    N386    N    0.15510   0.70070   0.04150   1.000
    N387    N    0.59490   0.45070   0.29150   1.000
    N388    N    0.40510   0.54930   0.29150   1.000
    N389    N    0.84490   0.79930   0.54150   1.000
    N390    N    0.65510   0.70070   0.54150   1.000
    N391    N    0.09490   0.95070   0.29150   1.000
    N392    N    0.90510   0.04930   0.29150   1.000
    N393    N    0.34490   0.29930   0.54150   1.000
    N394    N    0.15510   0.20070   0.54150   1.000
    N395    N    0.59490   0.95070   0.79150   1.000
    N396    N    0.40510   0.04930   0.79150   1.000
    N397    N    0.84490   0.29930   0.04150   1.000
    N398    N    0.65510   0.20070   0.04150   1.000
    C399    C    0.88220   0.61430   0.50180   1.000
    C400    C    0.36780   0.86430   0.75180   1.000
    C401    C    0.13220   0.63570   0.75180   1.000
    C402    C    0.61780   0.38570   0.00180   1.000
    C403    C    0.38220   0.61430   0.00180   1.000
    C404    C    0.86780   0.86430   0.25180   1.000
    C405    C    0.63220   0.63570   0.25180   1.000
    C406    C    0.11780   0.88570   0.00180   1.000
    C407    C    0.88220   0.11430   0.00180   1.000
    C408    C    0.36780   0.36430   0.25180   1.000
    C409    C    0.13220   0.13570   0.25180   1.000
    C410    C    0.61780   0.88570   0.50180   1.000
    C411    C    0.38220   0.11430   0.50180   1.000
    C412    C    0.86780   0.36430   0.75180   1.000
    C413    C    0.63220   0.13570   0.75180   1.000
    H414    H    0.86570   0.63130   0.52100   1.000
    H415    H    0.38430   0.88130   0.77100   1.000
    H416    H    0.11570   0.61870   0.77100   1.000
    H417    H    0.63430   0.36870   0.02100   1.000
    H418    H    0.36570   0.63130   0.02100   1.000
    H419    H    0.88430   0.88130   0.27100   1.000
    H420    H    0.61570   0.61870   0.27100   1.000
    H421    H    0.13430   0.86870   0.02100   1.000
    H422    H    0.86570   0.13130   0.02100   1.000
    H423    H    0.38430   0.38130   0.27100   1.000
    H424    H    0.11570   0.11870   0.27100   1.000
    H425    H    0.63430   0.86870   0.52100   1.000
    H426    H    0.36570   0.13130   0.52100   1.000
    N427    N    0.42820   0.07150   0.76420   1.000
    N428    N    0.82180   0.32150   0.01420   1.000
    N429    N    0.67820   0.17850   0.01420   1.000
    N430    N    0.90750   0.56300   0.44950   1.000
    N431    N    0.34250   0.81300   0.69950   1.000
    N432    N    0.15750   0.68700   0.69950   1.000
    N433    N    0.59250   0.43700   0.94950   1.000
    N434    N    0.40750   0.56300   0.94950   1.000
    N435    N    0.84250   0.81300   0.19950   1.000
    N436    N    0.65750   0.68700   0.19950   1.000
    N437    N    0.09250   0.93700   0.94950   1.000
    N438    N    0.90750   0.06300   0.94950   1.000
    N439    N    0.34250   0.31300   0.19950   1.000
    N440    N    0.15750   0.18700   0.19950   1.000
    N441    N    0.59250   0.93700   0.44950   1.000
    N442    N    0.40750   0.06300   0.44950   1.000
    N443    N    0.84250   0.31300   0.69950   1.000
    N444    N    0.65750   0.18700   0.69950   1.000
    N445    N    0.93260   0.58870   0.47150   1.000
    N446    N    0.31740   0.83870   0.72150   1.000
    N447    N    0.18260   0.66130   0.72150   1.000
    N448    N    0.56740   0.41130   0.97150   1.000
    N449    N    0.43260   0.58870   0.97150   1.000
    N450    N    0.81740   0.83870   0.22150   1.000
    N451    N    0.68260   0.66130   0.22150   1.000
    N452    N    0.06740   0.91130   0.97150   1.000
    N453    N    0.93260   0.08870   0.97150   1.000
    N454    N    0.31740   0.33870   0.22150   1.000
    N455    N    0.18260   0.16130   0.22150   1.000
    N456    N    0.56740   0.91130   0.47150   1.000
    N457    N    0.43260   0.08870   0.47150   1.000
    N458    N    0.81740   0.33870   0.72150   1.000
    N459    N    0.68260   0.16130   0.72150   1.000
    C460    C    0.00390   0.75370   0.38030   1.000
    C461    C    0.24610   0.00370   0.63030   1.000
    C462    C    0.25390   0.49630   0.63030   1.000
    C463    C    0.49610   0.24630   0.88030   1.000
    C464    C    0.50390   0.75370   0.88030   1.000
    C465    C    0.74610   0.00370   0.13030   1.000
    C466    C    0.75390   0.49630   0.13030   1.000
    C467    C    0.99610   0.74630   0.88030   1.000
    C468    C    0.00390   0.25370   0.88030   1.000
    C469    C    0.24610   0.50370   0.13030   1.000
    C470    C    0.25390   0.99630   0.13030   1.000
    C471    C    0.49610   0.74630   0.38030   1.000
    C472    C    0.50390   0.25370   0.38030   1.000
    C473    C    0.74610   0.50370   0.63030   1.000
    C474    C    0.75390   0.99630   0.63030   1.000
    H475    H    0.01010   0.71850   0.38150   1.000
    H476    H    0.23990   0.96850   0.63150   1.000
    H477    H    0.26010   0.53150   0.63150   1.000
    H478    H    0.48990   0.28150   0.88150   1.000
    H479    H    0.51010   0.71850   0.88150   1.000
    H480    H    0.73990   0.96850   0.13150   1.000
    H481    H    0.76010   0.53150   0.13150   1.000
    H482    H    0.98990   0.78150   0.88150   1.000
    H483    H    0.01010   0.21850   0.88150   1.000
    H484    H    0.23990   0.46850   0.13150   1.000
    H485    H    0.26010   0.03150   0.13150   1.000
    H486    H    0.48990   0.78150   0.38150   1.000
    H487    H    0.51010   0.21850   0.38150   1.000
    H488    H    0.73990   0.46850   0.63150   1.000
    H489    H    0.76010   0.03150   0.63150   1.000
    C490    C    0.88060   0.60450   0.74070   1.000
    C491    C    0.36940   0.85450   0.99070   1.000
    C492    C    0.13060   0.64550   0.99070   1.000
    C493    C    0.61940   0.39550   0.24070   1.000
    C494    C    0.38060   0.60450   0.24070   1.000
    C495    C    0.86940   0.85450   0.49070   1.000
    C496    C    0.63060   0.64550   0.49070   1.000
    C497    C    0.11940   0.89550   0.24070   1.000
    C498    C    0.88060   0.10450   0.24070   1.000
    C499    C    0.36940   0.35450   0.49070   1.000
    C500    C    0.13060   0.14550   0.49070   1.000
    C501    C    0.61940   0.89550   0.74070   1.000
    C502    C    0.38060   0.10450   0.74070   1.000
    C503    C    0.86940   0.35450   0.99070   1.000
    C504    C    0.63060   0.14550   0.99070   1.000
    H505    H    0.86370   0.62400   0.72440   1.000
    H506    H    0.38630   0.87400   0.97440   1.000
    H507    H    0.11370   0.62600   0.97440   1.000
    H508    H    0.63630   0.37600   0.22440   1.000
    H509    H    0.36370   0.62400   0.22440   1.000
    H510    H    0.88630   0.87400   0.47440   1.000
    H511    H    0.61370   0.62600   0.47440   1.000
    H512    H    0.13630   0.87600   0.22440   1.000
    H513    H    0.86370   0.12400   0.22440   1.000
    H514    H    0.38630   0.37400   0.47440   1.000
    H515    H    0.11370   0.12600   0.47440   1.000
    H516    H    0.63630   0.87600   0.72440   1.000
    H517    H    0.36370   0.12400   0.72440   1.000
    H518    H    0.88630   0.37400   0.97440   1.000
    H519    H    0.61370   0.12600   0.97440   1.000
    N520    N    0.99040   0.83450   0.40180   1.000
    N521    N    0.25960   0.08450   0.65180   1.000
    N522    N    0.24040   0.41550   0.65180   1.000
    N523    N    0.50960   0.16550   0.90180   1.000
    N524    N    0.49040   0.83450   0.90180   1.000
    N525    N    0.75960   0.08450   0.15180   1.000
    N526    N    0.74040   0.41550   0.15180   1.000
    N527    N    0.00960   0.66550   0.90180   1.000
    N528    N    0.99040   0.33450   0.90180   1.000
    N529    N    0.25960   0.58450   0.15180   1.000
    N530    N    0.24040   0.91550   0.15180   1.000
    N531    N    0.50960   0.66550   0.40180   1.000
    N532    N    0.49040   0.33450   0.40180   1.000
    N533    N    0.75960   0.58450   0.65180   1.000
    N534    N    0.74040   0.91550   0.65180   1.000
    N535    N    0.99080   0.83140   0.35400   1.000
    N536    N    0.25920   0.08140   0.60400   1.000
    N537    N    0.24080   0.41860   0.60400   1.000
    N538    N    0.50920   0.16860   0.85400   1.000
    N539    N    0.49080   0.83140   0.85400   1.000
    N540    N    0.75920   0.08140   0.10400   1.000
    N541    N    0.74080   0.41860   0.10400   1.000
    N542    N    0.00920   0.66860   0.85400   1.000
    N543    N    0.99080   0.33140   0.85400   1.000
    N544    N    0.25920   0.58140   0.10400   1.000
    N545    N    0.24080   0.91860   0.10400   1.000
    N546    N    0.50920   0.66860   0.35400   1.000
    N547    N    0.49080   0.33140   0.35400   1.000
    N548    N    0.75920   0.58140   0.60400   1.000
    N549    N    0.74080   0.91860   0.60400   1.000
    C550    C    0.83290   0.87090   0.25350   1.000
    N551    N    0.06850   0.92460   0.78400   1.000
    N552    N    0.18150   0.17460   0.03400   1.000
    N553    N    0.31850   0.32540   0.03400   1.000
    N554    N    0.43150   0.07540   0.28400   1.000
    N555    N    0.56850   0.92460   0.28400   1.000
    N556    N    0.68150   0.17460   0.53400   1.000
    N557    N    0.81850   0.32540   0.53400   1.000
    N558    N    0.93150   0.57540   0.28400   1.000
    N559    N    0.06850   0.42460   0.28400   1.000
    N560    N    0.18150   0.67460   0.53400   1.000
    N561    N    0.31850   0.82540   0.53400   1.000
    N562    N    0.43150   0.57540   0.78400   1.000
    N563    N    0.56850   0.42460   0.78400   1.000
    N564    N    0.68150   0.67460   0.03400   1.000
    N565    N    0.81850   0.82540   0.03400   1.000
    C566    C    0.91710   0.62090   0.50350   1.000
    C567    C    0.33290   0.87090   0.75350   1.000
    C568    C    0.16710   0.62910   0.75350   1.000
    C569    C    0.58290   0.37910   0.00350   1.000
    C570    C    0.41710   0.62090   0.00350   1.000
    C571    C    0.66710   0.62910   0.25350   1.000
    C572    C    0.08290   0.87910   0.00350   1.000
    C573    C    0.91710   0.12090   0.00350   1.000
    C574    C    0.33290   0.37090   0.25350   1.000
    C575    C    0.16710   0.12910   0.25350   1.000
    C576    C    0.58290   0.87910   0.50350   1.000
    C577    C    0.41710   0.12090   0.50350   1.000
    C578    C    0.83290   0.37090   0.75350   1.000
    C579    C    0.66710   0.12910   0.75350   1.000
    C580    C    0.99890   0.78280   0.34060   1.000
    C581    C    0.25110   0.03280   0.59060   1.000
    C582    C    0.24890   0.46720   0.59060   1.000
    C583    C    0.50110   0.21720   0.84060   1.000
    C584    C    0.49890   0.78280   0.84060   1.000
    C585    C    0.75110   0.03280   0.09060   1.000
    C586    C    0.74890   0.46720   0.09060   1.000
    C587    C    0.00110   0.71720   0.84060   1.000
    C588    C    0.99890   0.28280   0.84060   1.000
    C589    C    0.25110   0.53280   0.09060   1.000
    C590    C    0.24890   0.96720   0.09060   1.000
    C591    C    0.50110   0.71720   0.34060   1.000
    C592    C    0.49890   0.28280   0.34060   1.000
    C593    C    0.75110   0.53280   0.59060   1.000
    C594    C    0.74890   0.96720   0.59060   1.000
    C595    C    0.12230   0.93980   0.78320   1.000
    C596    C    0.12770   0.18980   0.03320   1.000
    C597    C    0.37230   0.31020   0.03320   1.000
    C598    C    0.37770   0.06020   0.28320   1.000
    C599    C    0.62230   0.93980   0.28320   1.000
    C600    C    0.62770   0.18980   0.53320   1.000
    C601    C    0.87230   0.31020   0.53320   1.000
    C602    C    0.87770   0.56020   0.28320   1.000
    C603    C    0.12230   0.43980   0.28320   1.000
    C604    C    0.12770   0.68980   0.53320   1.000
    C605    C    0.37230   0.81020   0.53320   1.000
    C606    C    0.37770   0.56020   0.78320   1.000
    C607    C    0.62230   0.43980   0.78320   1.000
    C608    C    0.62770   0.68980   0.03320   1.000
    C609    C    0.87230   0.81020   0.03320   1.000
    O610    O    0.07090   0.80680   0.48150   1.000
    O611    O    0.17910   0.05680   0.73150   1.000
    O612    O    0.32090   0.44320   0.73150   1.000
    O613    O    0.42910   0.19320   0.98150   1.000
    O614    O    0.57090   0.80680   0.98150   1.000
    O615    O    0.67910   0.05680   0.23150   1.000
    O616    O    0.82090   0.44320   0.23150   1.000
    O617    O    0.92910   0.69320   0.98150   1.000
    O618    O    0.07090   0.30680   0.98150   1.000
    O619    O    0.17910   0.55680   0.23150   1.000
    O620    O    0.32090   0.94320   0.23150   1.000
    O621    O    0.42910   0.69320   0.48150   1.000
    O622    O    0.57090   0.30680   0.48150   1.000
    O623    O    0.67910   0.55680   0.73150   1.000
    O624    O    0.82090   0.94320   0.73150   1.000
    N625    N    0.08800   0.80210   0.40500   1.000
    N626    N    0.16200   0.05210   0.65500   1.000
    N627    N    0.33800   0.44790   0.65500   1.000
    N628    N    0.41200   0.19790   0.90500   1.000
    N629    N    0.58800   0.80210   0.90500   1.000
    N630    N    0.66200   0.05210   0.15500   1.000
    N631    N    0.83800   0.44790   0.15500   1.000
    N632    N    0.91200   0.69790   0.90500   1.000
    N633    N    0.08800   0.30210   0.90500   1.000
    N634    N    0.16200   0.55210   0.15500   1.000
    N635    N    0.33800   0.94790   0.15500   1.000
    N636    N    0.41200   0.69790   0.40500   1.000
    N637    N    0.58800   0.30210   0.40500   1.000
    N638    N    0.66200   0.55210   0.65500   1.000
    N639    N    0.83800   0.94790   0.65500   1.000
    C640    C    0.08130   0.78290   0.44850   1.000
    C641    C    0.16870   0.03290   0.69850   1.000
    C642    C    0.33130   0.46710   0.69850   1.000
    C643    C    0.41870   0.21710   0.94850   1.000
    C644    C    0.58130   0.78290   0.94850   1.000
    C645    C    0.66870   0.03290   0.19850   1.000
    C646    C    0.83130   0.46710   0.19850   1.000
    C647    C    0.91870   0.71710   0.94850   1.000
    C648    C    0.08130   0.28290   0.94850   1.000
    C649    C    0.16870   0.53290   0.19850   1.000
    C650    C    0.33130   0.96710   0.19850   1.000
    C651    C    0.41870   0.71710   0.44850   1.000
    C652    C    0.58130   0.28290   0.44850   1.000
    C653    C    0.66870   0.53290   0.69850   1.000
    C654    C    0.83130   0.96710   0.69850   1.000
    H655    H    0.08520   0.74720   0.45330   1.000
    H656    H    0.16480   0.99720   0.70330   1.000
    H657    H    0.33520   0.50280   0.70330   1.000
    H658    H    0.41480   0.25280   0.95330   1.000
    H659    H    0.58520   0.74720   0.95330   1.000
    H660    H    0.66480   0.99720   0.20330   1.000
    H661    H    0.83520   0.50280   0.20330   1.000
    H662    H    0.91480   0.75280   0.95330   1.000
    H663    H    0.08520   0.24720   0.95330   1.000
    H664    H    0.16480   0.49720   0.20330   1.000
    H665    H    0.33520   0.00280   0.20330   1.000
    H666    H    0.41480   0.75280   0.45330   1.000
    H667    H    0.58520   0.24720   0.45330   1.000
    H668    H    0.66480   0.49720   0.70330   1.000
    H669    H    0.83520   0.00280   0.70330   1.000
    C670    C    0.08440   0.85400   0.39310   1.000
    C671    C    0.16560   0.10400   0.64310   1.000
    C672    C    0.33440   0.39600   0.64310   1.000
    C673    C    0.41560   0.14600   0.89310   1.000
    C674    C    0.58440   0.85400   0.89310   1.000
    C675    C    0.66560   0.10400   0.14310   1.000
    C676    C    0.83440   0.39600   0.14310   1.000
    C677    C    0.91560   0.64600   0.89310   1.000
    C678    C    0.08440   0.35400   0.89310   1.000
    C679    C    0.16560   0.60400   0.14310   1.000
    C680    C    0.33440   0.89600   0.14310   1.000
    C681    C    0.41560   0.64600   0.39310   1.000
    C682    C    0.58440   0.35400   0.39310   1.000
    C683    C    0.66560   0.60400   0.64310   1.000
    C684    C    0.83440   0.89600   0.64310   1.000
    H685    H    0.07680   0.87320   0.42140   1.000
    H686    H    0.17320   0.12320   0.67140   1.000
    H687    H    0.32680   0.37680   0.67140   1.000
    H688    H    0.42320   0.12680   0.92140   1.000
    H689    H    0.57680   0.87320   0.92140   1.000
    H690    H    0.67320   0.12320   0.17140   1.000
    H691    H    0.82680   0.37680   0.17140   1.000
    H692    H    0.92320   0.62680   0.92140   1.000
    H693    H    0.07680   0.37320   0.92140   1.000
    H694    H    0.17320   0.62320   0.17140   1.000
    H695    H    0.32680   0.87680   0.17140   1.000
    H696    H    0.42320   0.62680   0.42140   1.000
    H697    H    0.57680   0.37320   0.42140   1.000
    H698    H    0.67320   0.62320   0.67140   1.000
    H699    H    0.82680   0.87680   0.67140   1.000
    H700    H    0.06760   0.85770   0.36740   1.000
    H701    H    0.18240   0.10770   0.61740   1.000
    H702    H    0.31760   0.39230   0.61740   1.000
    H703    H    0.43240   0.14230   0.86740   1.000
    H704    H    0.56760   0.85770   0.86740   1.000
    H705    H    0.68240   0.10770   0.11740   1.000
    H706    H    0.81760   0.39230   0.11740   1.000
    H707    H    0.93240   0.64230   0.86740   1.000
    H708    H    0.06760   0.35770   0.86740   1.000
    H709    H    0.18240   0.60770   0.11740   1.000
    H710    H    0.31760   0.89230   0.11740   1.000
    H711    H    0.43240   0.64230   0.36740   1.000
    H712    H    0.56760   0.35770   0.36740   1.000
    H713    H    0.68240   0.60770   0.61740   1.000
    H714    H    0.81760   0.89230   0.61740   1.000
    H715    H    0.10640   0.86760   0.38230   1.000
    H716    H    0.14360   0.11760   0.63230   1.000
    H717    H    0.35640   0.38240   0.63230   1.000
    H718    H    0.39360   0.13240   0.88230   1.000
    H719    H    0.60640   0.86760   0.88230   1.000
    H720    H    0.64360   0.11760   0.13230   1.000
    H721    H    0.85640   0.38240   0.13230   1.000
    H722    H    0.89360   0.63240   0.88230   1.000
    H723    H    0.10640   0.36760   0.88230   1.000
    H724    H    0.14360   0.61760   0.13230   1.000
    H725    H    0.35640   0.88240   0.13230   1.000
    H726    H    0.39360   0.63240   0.38230   1.000
    H727    H    0.60640   0.36760   0.38230   1.000
    H728    H    0.64360   0.61760   0.63230   1.000
    H729    H    0.85640   0.88240   0.63230   1.000
    C730    C    0.09670   0.76510   0.36330   1.000
    C731    C    0.15330   0.01510   0.61330   1.000
    C732    C    0.34670   0.48490   0.61330   1.000
    C733    C    0.40330   0.23490   0.86330   1.000
    C734    C    0.59670   0.76510   0.86330   1.000
    C735    C    0.65330   0.01510   0.11330   1.000
    C736    C    0.84670   0.48490   0.11330   1.000
    C737    C    0.90330   0.73490   0.86330   1.000
    C738    C    0.09670   0.26510   0.86330   1.000
    C739    C    0.15330   0.51510   0.11330   1.000
    C740    C    0.34670   0.98490   0.11330   1.000
    C741    C    0.40330   0.73490   0.36330   1.000
    C742    C    0.59670   0.26510   0.36330   1.000
    C743    C    0.65330   0.51510   0.61330   1.000
    C744    C    0.84670   0.98490   0.61330   1.000
    H745    H    0.09730   0.72970   0.37520   1.000
    H746    H    0.15270   0.97970   0.62520   1.000
    H747    H    0.34730   0.52030   0.62520   1.000
    H748    H    0.40270   0.27030   0.87520   1.000
    H749    H    0.59730   0.72970   0.87520   1.000
    H750    H    0.65270   0.97970   0.12520   1.000
    H751    H    0.84730   0.52030   0.12520   1.000
    H752    H    0.90270   0.77030   0.87520   1.000
    H753    H    0.09730   0.22970   0.87520   1.000
    H754    H    0.15270   0.47970   0.12520   1.000
    H755    H    0.34730   0.02030   0.12520   1.000
    H756    H    0.40270   0.77030   0.37520   1.000
    H757    H    0.59730   0.22970   0.37520   1.000
    H758    H    0.65270   0.47970   0.62520   1.000
    H759    H    0.84730   0.02030   0.62520   1.000
    H760    H    0.11910   0.77420   0.35000   1.000
    H761    H    0.13090   0.02420   0.60000   1.000
    H762    H    0.36910   0.47580   0.60000   1.000
    H763    H    0.38090   0.22580   0.85000   1.000
    H764    H    0.61910   0.77420   0.85000   1.000
    H765    H    0.63090   0.02420   0.10000   1.000
    H766    H    0.86910   0.47580   0.10000   1.000
    H767    H    0.88090   0.72580   0.85000   1.000
    H768    H    0.11910   0.27420   0.85000   1.000
    H769    H    0.13090   0.52420   0.10000   1.000
    H770    H    0.36910   0.97580   0.10000   1.000
    H771    H    0.38090   0.72580   0.35000   1.000
    H772    H    0.61910   0.27420   0.35000   1.000
    H773    H    0.63090   0.52420   0.60000   1.000
    H774    H    0.86910   0.97580   0.60000   1.000
    H775    H    0.07940   0.76810   0.33810   1.000
    H776    H    0.17060   0.01810   0.58810   1.000
    H777    H    0.32940   0.48190   0.58810   1.000
    H778    H    0.42060   0.23190   0.83810   1.000
    H779    H    0.57940   0.76810   0.83810   1.000
    H780    H    0.67060   0.01810   0.08810   1.000
    H781    H    0.82940   0.48190   0.08810   1.000
    H782    H    0.92060   0.73190   0.83810   1.000
    H783    H    0.07940   0.26810   0.83810   1.000
    H784    H    0.17060   0.51810   0.08810   1.000
    H785    H    0.32940   0.98190   0.08810   1.000
    H786    H    0.42060   0.73190   0.33810   1.000
    H787    H    0.57940   0.26810   0.33810   1.000
    H788    H    0.67060   0.51810   0.58810   1.000
    H789    H    0.82940   0.98190   0.58810   1.000
    O790    O    0.91560   0.90360   0.61410   1.000
    O791    O    0.33440   0.15360   0.86410   1.000
    O792    O    0.16560   0.34640   0.86410   1.000
    O793    O    0.58440   0.09640   0.11410   1.000
    O794    O    0.41560   0.90360   0.11410   1.000
    O795    O    0.83440   0.15360   0.36410   1.000
    O796    O    0.66560   0.34640   0.36410   1.000
    O797    O    0.08440   0.59640   0.11410   1.000
    O798    O    0.91560   0.40360   0.11410   1.000
    O799    O    0.33440   0.65360   0.36410   1.000
    O800    O    0.16560   0.84640   0.36410   1.000
    O801    O    0.58440   0.59640   0.61410   1.000
    O802    O    0.41560   0.40360   0.61410   1.000
    O803    O    0.83440   0.65360   0.86410   1.000
    O804    O    0.66560   0.84640   0.86410   1.000
    C805    C    0.93940   0.92320   0.58750   1.000
    C806    C    0.31060   0.17320   0.83750   1.000
    C807    C    0.18940   0.32680   0.83750   1.000
    C808    C    0.56060   0.07680   0.08750   1.000
    C809    C    0.43940   0.92320   0.08750   1.000
    C810    C    0.81060   0.17320   0.33750   1.000
    C811    C    0.68940   0.32680   0.33750   1.000
    C812    C    0.06060   0.57680   0.08750   1.000
    C813    C    0.93940   0.42320   0.08750   1.000
    C814    C    0.31060   0.67320   0.33750   1.000
    C815    C    0.18940   0.82680   0.33750   1.000
    C816    C    0.56060   0.57680   0.58750   1.000
    C817    C    0.43940   0.42320   0.58750   1.000
    C818    C    0.81060   0.67320   0.83750   1.000
    C819    C    0.68940   0.82680   0.83750   1.000
    O820    O    0.91670   0.89390   0.67770   1.000
    O821    O    0.33330   0.14390   0.92770   1.000
    O822    O    0.16670   0.35610   0.92770   1.000
    O823    O    0.58330   0.10610   0.17770   1.000
    O824    O    0.41670   0.89390   0.17770   1.000
    O825    O    0.83330   0.14390   0.42770   1.000
    O826    O    0.66670   0.35610   0.42770   1.000
    O827    O    0.08330   0.60610   0.17770   1.000
    O828    O    0.91670   0.39390   0.17770   1.000
    O829    O    0.33330   0.64390   0.42770   1.000
    O830    O    0.16670   0.85610   0.42770   1.000
    O831    O    0.58330   0.60610   0.67770   1.000
    O832    O    0.41670   0.39390   0.67770   1.000
    O833    O    0.83330   0.64390   0.92770   1.000
    O834    O    0.66670   0.85610   0.92770   1.000
    C835    C    0.93870   0.90550   0.70990   1.000
    C836    C    0.31130   0.15550   0.95990   1.000
    C837    C    0.18870   0.34450   0.95990   1.000
    C838    C    0.56130   0.09450   0.20990   1.000
    O839    O    0.52020   0.93920   0.62740   1.000
    O840    O    0.47980   0.06080   0.62740   1.000
    O841    O    0.77020   0.31080   0.87740   1.000
    O842    O    0.72980   0.18920   0.87740   1.000
    N843    N    0.96350   0.97260   0.69200   1.000
    N844    N    0.28650   0.22260   0.94200   1.000
    N845    N    0.21350   0.27740   0.94200   1.000
    N846    N    0.53650   0.02740   0.19200   1.000
    N847    N    0.46350   0.97260   0.19200   1.000
    N848    N    0.78650   0.22260   0.44200   1.000
    N849    N    0.71350   0.27740   0.44200   1.000
    N850    N    0.03650   0.52740   0.19200   1.000
    N851    N    0.96350   0.47260   0.19200   1.000
    N852    N    0.28650   0.72260   0.44200   1.000
    N853    N    0.21350   0.77740   0.44200   1.000
    N854    N    0.53650   0.52740   0.69200   1.000
    N855    N    0.46350   0.47260   0.69200   1.000
    N856    N    0.78650   0.72260   0.94200   1.000
    N857    N    0.71350   0.77740   0.94200   1.000
    C858    C    0.05060   0.58930   0.55840   1.000
    C859    C    0.19940   0.83930   0.80840   1.000
    C860    C    0.30060   0.66070   0.80840   1.000
    C861    C    0.44940   0.41070   0.05840   1.000
    C862    C    0.55060   0.58930   0.05840   1.000
    C863    C    0.69940   0.83930   0.30840   1.000
    C864    C    0.80060   0.66070   0.30840   1.000
    C865    C    0.94940   0.91070   0.05840   1.000
    C866    C    0.05060   0.08930   0.05840   1.000
    C867    C    0.19940   0.33930   0.30840   1.000
    C868    C    0.30060   0.16070   0.30840   1.000
    C869    C    0.44940   0.91070   0.55840   1.000
    C870    C    0.55060   0.08930   0.55840   1.000
    C871    C    0.69940   0.33930   0.80840   1.000
    C872    C    0.80060   0.16070   0.80840   1.000
    C873    C    0.98050   0.92790   0.68880   1.000
    C874    C    0.26950   0.17790   0.93880   1.000
    C875    C    0.23050   0.32210   0.93880   1.000
    C876    C    0.51950   0.07210   0.18880   1.000
    C877    C    0.48050   0.92790   0.18880   1.000
    C878    C    0.76950   0.17790   0.43880   1.000
    C879    C    0.73050   0.32210   0.43880   1.000
    C880    C    0.01950   0.57210   0.18880   1.000
    C881    C    0.98050   0.42790   0.18880   1.000
    C882    C    0.26950   0.67790   0.43880   1.000
    C883    C    0.23050   0.82210   0.43880   1.000
    C884    C    0.51950   0.57210   0.68880   1.000
    C885    C    0.48050   0.42790   0.68880   1.000
    C886    C    0.76950   0.67790   0.93880   1.000
    C887    C    0.73050   0.82210   0.93880   1.000
    C888    C    0.92810   0.97760   0.70900   1.000
    C889    C    0.32190   0.22760   0.95900   1.000
    C890    C    0.17810   0.27240   0.95900   1.000
    C891    C    0.57190   0.02240   0.20900   1.000
    C892    C    0.42810   0.97760   0.20900   1.000
    C893    C    0.82190   0.22760   0.45900   1.000
    C894    C    0.67810   0.27240   0.45900   1.000
    C895    C    0.07190   0.52240   0.20900   1.000
    C896    C    0.92810   0.47760   0.20900   1.000
    C897    C    0.32190   0.72760   0.45900   1.000
    C898    C    0.17810   0.77240   0.45900   1.000
    C899    C    0.57190   0.52240   0.70900   1.000
    C900    C    0.42810   0.47760   0.70900   1.000
    C901    C    0.82190   0.72760   0.95900   1.000
    C902    C    0.67810   0.77240   0.95900   1.000
    C903    C    0.00810   0.56510   0.65410   1.000
    C904    C    0.24190   0.81510   0.90410   1.000
    C905    C    0.25810   0.68490   0.90410   1.000
    C906    C    0.49190   0.43490   0.15410   1.000
    C907    C    0.50810   0.56510   0.15410   1.000
    C908    C    0.74190   0.81510   0.40410   1.000
    C909    C    0.75810   0.68490   0.40410   1.000
    C910    C    0.99190   0.93490   0.15410   1.000
    C911    C    0.00810   0.06510   0.15410   1.000
    C912    C    0.24190   0.31510   0.40410   1.000
    C913    C    0.25810   0.18490   0.40410   1.000
    C914    C    0.49190   0.93490   0.65410   1.000
    C915    C    0.50810   0.06510   0.65410   1.000
    C916    C    0.74190   0.31510   0.90410   1.000
    C917    C    0.75810   0.18490   0.90410   1.000
    O918    O    0.06540   0.55420   0.53580   1.000
    O919    O    0.18460   0.80420   0.78580   1.000
    O920    O    0.31540   0.69580   0.78580   1.000
    O921    O    0.43460   0.44580   0.03580   1.000
    O922    O    0.56540   0.55420   0.03580   1.000
    O923    O    0.68460   0.80420   0.28580   1.000
    O924    O    0.81540   0.69580   0.28580   1.000
    O925    O    0.93460   0.94580   0.03580   1.000
    O926    O    0.06540   0.05420   0.03580   1.000
    O927    O    0.18460   0.30420   0.28580   1.000
    O928    O    0.31540   0.19580   0.28580   1.000
    O929    O    0.43460   0.94580   0.53580   1.000
    O930    O    0.56540   0.05420   0.53580   1.000
    O931    O    0.68460   0.30420   0.78580   1.000
    O932    O    0.81540   0.19580   0.78580   1.000
    N933    N    0.08370   0.01110   0.37820   1.000
    N934    N    0.16630   0.26110   0.62820   1.000
    N935    N    0.33370   0.23890   0.62820   1.000
    N936    N    0.41630   0.98890   0.87820   1.000
    N937    N    0.58370   0.01110   0.87820   1.000
    N938    N    0.66630   0.26110   0.12820   1.000
    N939    N    0.83370   0.23890   0.12820   1.000
    N940    N    0.91630   0.48890   0.87820   1.000
    N941    N    0.08370   0.51110   0.87820   1.000
    N942    N    0.16630   0.76110   0.12820   1.000
    N943    N    0.33370   0.73890   0.12820   1.000
    N944    N    0.41630   0.48890   0.37820   1.000
    N945    N    0.58370   0.51110   0.37820   1.000
    N946    N    0.66630   0.76110   0.62820   1.000
    N947    N    0.83370   0.73890   0.62820   1.000
    O948    O    0.67650   0.01100   0.53340   1.000
    O949    O    0.07080   0.01010   0.88270   1.000
    O950    O    0.17920   0.26010   0.13270   1.000
    O951    O    0.32080   0.23990   0.13270   1.000
    O952    O    0.42920   0.98990   0.38270   1.000
    O953    O    0.57080   0.01010   0.38270   1.000
    O954    O    0.67920   0.26010   0.63270   1.000
    O955    O    0.82080   0.23990   0.63270   1.000
    O956    O    0.92920   0.48990   0.38270   1.000
    O957    O    0.07080   0.51010   0.38270   1.000
    O958    O    0.17920   0.76010   0.63270   1.000
    O959    O    0.32080   0.73990   0.63270   1.000
    O960    O    0.42920   0.48990   0.88270   1.000
    O961    O    0.57080   0.51010   0.88270   1.000
    O962    O    0.67920   0.76010   0.13270   1.000
    O963    O    0.82080   0.73990   0.13270   1.000
    O964    O    0.07350   0.76100   0.78340   1.000
    O965    O    0.17650   0.01100   0.03340   1.000
    O966    O    0.32350   0.48900   0.03340   1.000
    O967    O    0.42650   0.23900   0.28340   1.000
    O968    O    0.57350   0.76100   0.28340   1.000
    O969    O    0.82350   0.48900   0.53340   1.000
    O970    O    0.92650   0.73900   0.28340   1.000
    O971    O    0.07350   0.26100   0.28340   1.000
    O972    O    0.17650   0.51100   0.53340   1.000
    O973    O    0.32350   0.98900   0.53340   1.000
    O974    O    0.42650   0.73900   0.78340   1.000
    O975    O    0.57350   0.26100   0.78340   1.000
    O976    O    0.67650   0.51100   0.03340   1.000
    O977    O    0.82350   0.98900   0.03340   1.000
    C978    C    0.04730   0.99660   0.38050   1.000
    C979    C    0.20270   0.24660   0.63050   1.000
    C980    C    0.29730   0.25340   0.63050   1.000
    C981    C    0.45270   0.00340   0.88050   1.000
    C982    C    0.54730   0.99660   0.88050   1.000
    C983    C    0.70270   0.24660   0.13050   1.000
    C984    C    0.79730   0.25340   0.13050   1.000
    C985    C    0.95270   0.50340   0.88050   1.000
    C986    C    0.04730   0.49660   0.88050   1.000
    C987    C    0.20270   0.74660   0.13050   1.000
    C988    C    0.29730   0.75340   0.13050   1.000
    C989    C    0.45270   0.50340   0.38050   1.000
    C990    C    0.54730   0.49660   0.38050   1.000
    C991    C    0.70270   0.74660   0.63050   1.000
    C992    C    0.79730   0.75340   0.63050   1.000
    C993    C    0.08900   0.06790   0.37480   1.000
    C994    C    0.16100   0.31790   0.62480   1.000
    C995    C    0.33900   0.18210   0.62480   1.000
    C996    C    0.41100   0.93210   0.87480   1.000
    C997    C    0.58900   0.06790   0.87480   1.000
    C998    C    0.66100   0.31790   0.12480   1.000
    C999    C    0.83900   0.18210   0.12480   1.000
    C1000   C    0.91100   0.43210   0.87480   1.000
    C1001   C    0.08900   0.56790   0.87480   1.000
    C1002   C    0.16100   0.81790   0.12480   1.000
    C1003   C    0.33900   0.68210   0.12480   1.000
    C1004   C    0.41100   0.43210   0.37480   1.000
    C1005   C    0.58900   0.56790   0.37480   1.000
    C1006   C    0.66100   0.81790   0.62480   1.000
    C1007   C    0.83900   0.68210   0.62480   1.000
    N1008   N    0.00110   0.93110   0.46400   1.000
    N1009   N    0.24890   0.18110   0.71400   1.000
    N1010   N    0.25110   0.31890   0.71400   1.000
    N1011   N    0.49890   0.06890   0.96400   1.000
    N1012   N    0.50110   0.93110   0.96400   1.000
    N1013   N    0.74890   0.18110   0.21400   1.000
    N1014   N    0.75110   0.31890   0.21400   1.000
    N1015   N    0.99890   0.56890   0.96400   1.000
    N1016   N    0.00110   0.43110   0.96400   1.000
    N1017   N    0.24890   0.68110   0.21400   1.000
    N1018   N    0.25110   0.81890   0.21400   1.000
    N1019   N    0.49890   0.56890   0.46400   1.000
    N1020   N    0.50110   0.43110   0.46400   1.000
    N1021   N    0.74890   0.68110   0.71400   1.000
    N1022   N    0.75110   0.81890   0.71400   1.000
    C1023   C    0.25000   0.25000   0.74470   1.000
    C1024   C    0.50000   0.00000   0.99470   1.000
    C1025   C    0.75000   0.25000   0.24470   1.000
    C1026   C    0.00000   0.50000   0.99470   1.000
    C1027   C    0.25000   0.75000   0.24470   1.000
    C1028   C    0.50000   0.50000   0.49470   1.000
    C1029   C    0.75000   0.75000   0.74470   1.000
    C1030   C    0.95540   0.90560   0.46380   1.000
    C1031   C    0.29460   0.15560   0.71380   1.000
    C1032   C    0.20540   0.34440   0.71380   1.000
    C1033   C    0.54460   0.09440   0.96380   1.000
    C1034   C    0.45540   0.90560   0.96380   1.000
    C1035   C    0.79460   0.15560   0.21380   1.000
    C1036   C    0.70540   0.34440   0.21380   1.000
    C1037   C    0.04460   0.59440   0.96380   1.000
    C1038   C    0.95540   0.40560   0.96380   1.000
    C1039   C    0.29460   0.65560   0.21380   1.000
    C1040   C    0.20540   0.84440   0.21380   1.000
    C1041   C    0.54460   0.59440   0.46380   1.000
    C1042   C    0.45540   0.40560   0.46380   1.000
    C1043   C    0.79460   0.65560   0.71380   1.000
    C1044   C    0.70540   0.84440   0.71380   1.000
    N1045   N    0.08500   0.76750   0.86340   1.000
    N1046   N    0.16500   0.01750   0.11340   1.000
    N1047   N    0.33500   0.48250   0.11340   1.000
    N1048   N    0.41500   0.23250   0.36340   1.000
    N1049   N    0.58500   0.76750   0.36340   1.000
    N1050   N    0.66500   0.01750   0.61340   1.000
    N1051   N    0.83500   0.48250   0.61340   1.000
    N1052   N    0.91500   0.73250   0.36340   1.000
    N1053   N    0.08500   0.26750   0.36340   1.000
    N1054   N    0.16500   0.51750   0.61340   1.000
    N1055   N    0.33500   0.98250   0.61340   1.000
    N1056   N    0.41500   0.73250   0.86340   1.000
    N1057   N    0.58500   0.26750   0.86340   1.000
    N1058   N    0.66500   0.51750   0.11340   1.000
    N1059   N    0.83500   0.98250   0.11340   1.000
    C1060   C    0.07030   0.77980   0.82010   1.000
    C1061   C    0.17970   0.02980   0.07010   1.000
    C1062   C    0.32030   0.47020   0.07010   1.000
    C1063   C    0.42970   0.22020   0.32010   1.000
    C1064   C    0.57030   0.77980   0.32010   1.000
    C1065   C    0.67970   0.02980   0.57010   1.000
    C1066   C    0.82030   0.47020   0.57010   1.000
    C1067   C    0.92970   0.72020   0.32010   1.000
    C1068   C    0.07030   0.27980   0.32010   1.000
    C1069   C    0.17970   0.52980   0.57010   1.000
    C1070   C    0.32030   0.97020   0.57010   1.000
    C1071   C    0.42970   0.72020   0.82010   1.000
    C1072   C    0.57030   0.27980   0.82010   1.000
    C1073   C    0.67970   0.52980   0.07010   1.000
    C1074   C    0.82030   0.97020   0.07010   1.000
    C1075   C    0.08510   0.80290   0.90880   1.000
    C1076   C    0.16490   0.05290   0.15880   1.000
    C1077   C    0.33510   0.44710   0.15880   1.000
    C1078   C    0.41490   0.19710   0.40880   1.000
    C1079   C    0.58510   0.80290   0.40880   1.000
    C1080   C    0.66490   0.05290   0.65880   1.000
    C1081   C    0.83510   0.44710   0.65880   1.000
    C1082   C    0.91490   0.69710   0.40880   1.000
    C1083   C    0.08510   0.30290   0.40880   1.000
    C1084   C    0.16490   0.55290   0.65880   1.000
    C1085   C    0.33510   0.94710   0.65880   1.000
    C1086   C    0.41490   0.69710   0.90880   1.000
    C1087   C    0.58510   0.30290   0.90880   1.000
    C1088   C    0.66490   0.55290   0.15880   1.000
    C1089   C    0.83510   0.94710   0.15880   1.000
    C1090   C    0.10240   0.71650   0.88700   1.000
    C1091   C    0.14760   0.96650   0.13700   1.000
    C1092   C    0.35240   0.53350   0.13700   1.000
    C1093   C    0.39760   0.28350   0.38700   1.000
    C1094   C    0.60240   0.71650   0.38700   1.000
    C1095   C    0.64760   0.96650   0.63700   1.000
    C1096   C    0.85240   0.53350   0.63700   1.000
    C1097   C    0.89760   0.78350   0.38700   1.000
    C1098   C    0.10240   0.21650   0.38700   1.000
    C1099   C    0.14760   0.46650   0.63700   1.000
    C1100   C    0.35240   0.03350   0.63700   1.000
    C1101   C    0.39760   0.78350   0.88700   1.000
    C1102   C    0.60240   0.21650   0.88700   1.000
    C1103   C    0.64760   0.46650   0.13700   1.000
    C1104   C    0.85240   0.03350   0.13700   1.000
    O1105   O    0.99940   0.57240   0.79830   1.000
    O1106   O    0.25060   0.82240   0.04830   1.000
    O1107   O    0.24940   0.67760   0.04830   1.000
    O1108   O    0.50060   0.42760   0.29830   1.000
    O1109   O    0.49940   0.57240   0.29830   1.000
    O1110   O    0.75060   0.82240   0.54830   1.000
    O1111   O    0.74940   0.67760   0.54830   1.000
    O1112   O    0.00060   0.92760   0.29830   1.000
    O1113   O    0.99940   0.07240   0.29830   1.000
    O1114   O    0.25060   0.32240   0.54830   1.000
    O1115   O    0.24940   0.17760   0.54830   1.000
    O1116   O    0.50060   0.92760   0.79830   1.000
    O1117   O    0.49940   0.07240   0.79830   1.000
    O1118   O    0.75060   0.32240   0.04830   1.000
    O1119   O    0.74940   0.17760   0.04830   1.000
    O1120   O    0.25000   0.75000   0.00900   1.000
    O1121   O    0.50000   0.50000   0.25900   1.000
    O1122   O    0.75000   0.75000   0.50900   1.000
    O1123   O    0.00000   0.00000   0.25900   1.000
    O1124   O    0.25000   0.25000   0.50900   1.000
    O1125   O    0.50000   0.00000   0.75900   1.000
    O1126   O    0.75000   0.25000   0.00900   1.000
    O1127   O    0.99980   0.61900   0.42900   1.000
    O1128   O    0.25020   0.86900   0.67900   1.000
    O1129   O    0.24980   0.63100   0.67900   1.000
    O1130   O    0.50020   0.38100   0.92900   1.000
    O1131   O    0.49980   0.61900   0.92900   1.000
    O1132   O    0.75020   0.86900   0.17900   1.000
    O1133   O    0.74980   0.63100   0.17900   1.000
    O1134   O    0.00020   0.88100   0.92900   1.000
    O1135   O    0.99980   0.11900   0.92900   1.000
    O1136   O    0.25020   0.36900   0.17900   1.000
    O1137   O    0.24980   0.13100   0.17900   1.000
    O1138   O    0.50020   0.88100   0.42900   1.000
    O1139   O    0.49980   0.11900   0.42900   1.000
    O1140   O    0.75020   0.36900   0.67900   1.000
    O1141   O    0.74980   0.13100   0.67900   1.000
    O1142   O    0.07400   0.59900   0.38800   1.000
    O1143   O    0.17600   0.84900   0.63800   1.000
    O1144   O    0.32400   0.65100   0.63800   1.000
    O1145   O    0.42600   0.40100   0.88800   1.000
    O1146   O    0.57400   0.59900   0.88800   1.000
    O1147   O    0.67600   0.84900   0.13800   1.000
    O1148   O    0.82400   0.65100   0.13800   1.000
    O1149   O    0.92600   0.90100   0.88800   1.000
    O1150   O    0.07400   0.09900   0.88800   1.000
    O1151   O    0.17600   0.34900   0.13800   1.000
    O1152   O    0.32400   0.15100   0.13800   1.000
    O1153   O    0.42600   0.90100   0.38800   1.000
    O1154   O    0.57400   0.09900   0.38800   1.000
    O1155   O    0.67600   0.34900   0.63800   1.000
    O1156   O    0.82400   0.15100   0.63800   1.000
    C1157   C    0.00100   0.59600   0.38800   1.000
    C1158   C    0.24900   0.84600   0.63800   1.000
    C1159   C    0.25100   0.65400   0.63800   1.000
    C1160   C    0.49900   0.40400   0.88800   1.000
    C1161   C    0.50100   0.59600   0.88800   1.000
    C1162   C    0.74900   0.84600   0.13800   1.000
    C1163   C    0.75100   0.65400   0.13800   1.000
    C1164   C    0.99900   0.90400   0.88800   1.000
    C1165   C    0.00100   0.09600   0.88800   1.000
    C1166   C    0.24900   0.34600   0.13800   1.000
    C1167   C    0.25100   0.15400   0.13800   1.000
    C1168   C    0.49900   0.90400   0.38800   1.000
    C1169   C    0.50100   0.09600   0.38800   1.000
    C1170   C    0.74900   0.34600   0.63800   1.000
    C1171   C    0.75100   0.15400   0.63800   1.000
    C1172   C    0.05100   0.60800   0.40100   1.000
    C1173   C    0.19900   0.85800   0.65100   1.000
    C1174   C    0.30100   0.64200   0.65100   1.000
    C1175   C    0.44900   0.39200   0.90100   1.000
    C1176   C    0.55100   0.60800   0.90100   1.000
    C1177   C    0.69900   0.85800   0.15100   1.000
    C1178   C    0.80100   0.64200   0.15100   1.000
    C1179   C    0.94900   0.89200   0.90100   1.000
    C1180   C    0.05100   0.10800   0.90100   1.000
    C1181   C    0.19900   0.35800   0.15100   1.000
    C1182   C    0.30100   0.14200   0.15100   1.000
    C1183   C    0.44900   0.89200   0.40100   1.000
    C1184   C    0.55100   0.10800   0.40100   1.000
    C1185   C    0.69900   0.35800   0.65100   1.000
    C1186   C    0.80100   0.14200   0.65100   1.000
    O1187   O    0.99730   0.95760   0.78090   1.000
    O1188   O    0.25270   0.20760   0.03090   1.000
    O1189   O    0.24730   0.29240   0.03090   1.000
    O1190   O    0.50270   0.04240   0.28090   1.000
    O1191   O    0.49730   0.95760   0.28090   1.000
    O1192   O    0.75270   0.20760   0.53090   1.000
    O1193   O    0.74730   0.29240   0.53090   1.000
    O1194   O    0.00270   0.54240   0.28090   1.000
    O1195   O    0.99730   0.45760   0.28090   1.000
    O1196   O    0.25270   0.70760   0.53090   1.000
    O1197   O    0.24730   0.79240   0.53090   1.000
    O1198   O    0.50270   0.54240   0.78090   1.000
    O1199   O    0.49730   0.45760   0.78090   1.000
    O1200   O    0.75270   0.70760   0.03090   1.000
    O1201   O    0.74730   0.79240   0.03090   1.000
    C1202   C    0.99940   0.54400   0.75900   1.000
    C1203   C    0.25060   0.79400   0.00900   1.000
    C1204   C    0.24940   0.70600   0.00900   1.000
    C1205   C    0.50060   0.45600   0.25900   1.000
    C1206   C    0.49940   0.54400   0.25900   1.000
    C1207   C    0.75060   0.79400   0.50900   1.000
    C1208   C    0.74940   0.70600   0.50900   1.000
    C1209   C    0.00060   0.95600   0.25900   1.000
    C1210   C    0.99940   0.04400   0.25900   1.000
    C1211   C    0.25060   0.29400   0.50900   1.000
    C1212   C    0.24940   0.20600   0.50900   1.000
    C1213   C    0.50060   0.95600   0.75900   1.000
    C1214   C    0.49940   0.04400   0.75900   1.000
    C1215   C    0.75060   0.29400   0.00900   1.000
    C1216   C    0.74940   0.20600   0.00900   1.000
    C1217   C    0.04270   0.59200   0.78800   1.000
    C1218   C    0.20730   0.84200   0.03800   1.000
    C1219   C    0.29270   0.65800   0.03800   1.000
    C1220   C    0.45730   0.40800   0.28800   1.000
    C1221   C    0.54270   0.59200   0.28800   1.000
    C1222   C    0.70730   0.84200   0.53800   1.000
    C1223   C    0.79270   0.65800   0.53800   1.000
    C1224   C    0.95730   0.90800   0.28800   1.000
    C1225   C    0.04270   0.09200   0.28800   1.000
    C1226   C    0.20730   0.34200   0.53800   1.000
    C1227   C    0.29270   0.15800   0.53800   1.000
    C1228   C    0.45730   0.90800   0.78800   1.000
    C1229   C    0.54270   0.09200   0.78800   1.000
    C1230   C    0.70730   0.34200   0.03800   1.000
    C1231   C    0.79270   0.15800   0.03800   1.000
loop_
    _geom_bond_atom_site_label_1
    _geom_bond_atom_site_label_2
    _geom_bond_distance
    _geom_bond_site_symmetry_2
    _ccdc_geom_bond_type
    C185   N552      1.32159      .   S
    C185   C83       1.38458  1_554   S
    C186   N553      1.32159      .   S
    C186   C221      1.38458  1_554   S
    C197   N564      1.32159      .   S
    C197   C232      1.38458  1_554   S
    C198   N565      1.32159      .   S
    C198   C233      1.38458  1_554   S
    N282   C297      1.42040      .   S
    N282   N267      1.42025  1_554   S
    N283   C298      1.42040      .   S
    N283   N268      1.42025  1_554   S
    N286   C301      1.42040      .   S
    N286   N271      1.42025  1_554   S
    N287   C302      1.42040      .   S
    N287   N272      1.42025  1_554   S
    C406   C572      1.38039      .   S
    C406   H421      0.94928      .   S
    C406   C161      1.37131  1_554   S
    C403   C570      1.38039      .   S
    C403   H418      0.94928      .   S
    C403   C158      1.37131  1_554   S
    C402   C569      1.38039      .   S
    C402   H417      0.94928      .   S
    C402   C157      1.37131  1_554   S
    C407   C573      1.38039      .   S
    C407   H422      0.94928      .   S
    C407   C162      1.37131  1_554   S
    C569   N448      1.36668  1_554   S
    C570   N449      1.36668  1_554   S
    C572   N452      1.36668  1_554   S
    C573   N453      1.36668  1_554   S
    O1120  C1203     1.14503      .   S
    O1120  C1204     1.14503      .   S
    O1126  C1215     1.14503      .   S
    O1126  C1216     1.14503      .   S
    C1203  O1106     1.32179      .   S
    C1204  O1107     1.32179      .   S
    C1215  O1118     1.32179      .   S
    C1216  O1119     1.32179      .   S
    N113   N385      1.31686      .   S
    N113   C170      1.32464  1_554   S
    N114   N386      1.31686      .   S
    N114   C171      1.32464  1_554   S
    N428   N397      1.31686      .   S
    N428   C182      1.32464  1_554   S
    N429   N398      1.31686      .   S
    N429   C183      1.32464  1_554   S
    C370   N385      1.31076      .   S
    C370   C491      1.38746  1_554   S
    C371   N386      1.31076      .   S
    C371   C492      1.38746  1_554   S
    C382   N397      1.31076      .   S
    C382   C503      1.38746  1_554   S
    C383   N398      1.31076      .   S
    C383   C504      1.38746  1_554   S
    C312   C297      1.42021      .   S
    C312   H327      0.95166      .   S
    C312   C342      1.41901  1_554   S
    C313   C298      1.42021      .   S
    C313   H328      0.95166      .   S
    C313   C343      1.41901  1_554   S
    C316   C301      1.42021      .   S
    C316   H331      0.95166      .   S
    C316   C346      1.41901  1_554   S
    C317   C302      1.42021      .   S
    C317   H332      0.95166      .   S
    C317   C347      1.41901  1_554   S
    C609   N368      1.33941      .   S
    C609   C233      1.35892  1_554   S
    C608   N367      1.33941      .   S
    C608   C232      1.35892  1_554   S
    C597   N356      1.33941      .   S
    C597   C221      1.35892  1_554   S
    C596   N355      1.33941      .   S
    C596   C83       1.35892  1_554   S
    O965   C1061     1.14126      .   S
    O966   C1062     1.14126      .   S
    O976   C1073     1.14126      .   S
    O977   C1074     1.14126      .   S
    N565   N368      1.32020      .   S
    N564   N367      1.32020      .   S
    N553   N356      1.32020      .   S
    N552   N355      1.32020      .   S
    O921   C861      1.25226      .   S
    O922   C862      1.25226      .   S
    O925   C865      1.25226      .   S
    O926   C866      1.25226      .   S
    C1218  O1106     1.79634      .   S
    C1219  O1107     1.79634      .   S
    C1230  O1118     1.79634      .   S
    C1231  O1119     1.79634      .   S
    O87    C861      1.22985      .   S
    O88    C862      1.22985      .   S
    O91    C865      1.22985      .   S
    O92    C866      1.22985      .   S
    C1074  N1059     1.37583      .   S
    C1073  N1058     1.37583      .   S
    C1061  N1046     1.37583      .   S
    C1062  N1047     1.37583      .   S
    O102   C808      1.25924      .   S
    O107   C813      1.25924      .   S
    O103   C809      1.25924      .   S
    O106   C812      1.25924      .   S
    C813   O798      1.29680      .   S
    C812   O797      1.29680      .   S
    C809   O794      1.29680      .   S
    C808   O793      1.29680      .   S
    H781   C736      0.97999      .   S
    H780   C735      0.97999      .   S
    H784   C739      0.97999      .   S
    H785   C740      0.97999      .   S
    C589   N544      1.35627      .   S
    C589   C469      1.35551      .   S
    C585   N540      1.35627      .   S
    C585   C465      1.35551      .   S
    C586   N541      1.35627      .   S
    C586   C466      1.35551      .   S
    C590   N545      1.35627      .   S
    C590   C470      1.35551      .   S
    H765   C735      0.98260      .   S
    H766   C736      0.98260      .   S
    H770   C740      0.98260      .   S
    H769   C739      0.98260      .   S
    N545   N530      1.33553      .   S
    N544   N529      1.33553      .   S
    N540   N525      1.33553      .   S
    N541   N526      1.33553      .   S
    C739   H754      0.97928      .   S
    C739   N634      1.54773      .   S
    C740   H755      0.97928  1_565   S
    C740   N635      1.54773      .   S
    C736   H751      0.97928      .   S
    C736   N631      1.54773      .   S
    C735   H750      0.97928  1_545   S
    C735   N630      1.54773      .   S
    N1047  C1092     1.63083      .   S
    N1047  C1077     1.56565      .   S
    N1046  C1091     1.63083  1_545   S
    N1046  C1076     1.56565      .   S
    N1059  C1104     1.63083  1_565   S
    N1059  C1089     1.56565      .   S
    N1058  C1103     1.63083      .   S
    N1058  C1088     1.56565      .   S
    H705   C675      0.97832      .   S
    H706   C676      0.97832      .   S
    H709   C679      0.97832      .   S
    H710   C680      0.97832      .   S
    C1002  N942      1.49538      .   S
    C999   N939      1.49538      .   S
    C1003  N943      1.49538      .   S
    C998   N938      1.49538      .   S
    O217   C910      1.34126  1_455   S
    O214   C907      1.34126      .   S
    O218   C911      1.34126  1_655   S
    O213   C906      1.34126      .   S
    N943   C988      1.47808      .   S
    N942   C987      1.47808      .   S
    N938   C983      1.47808      .   S
    N939   C984      1.47808      .   S
    C465   H480      0.94816  1_545   S
    C465   C254      1.39295      .   S
    C470   H485      0.94816  1_565   S
    C470   C259      1.39295      .   S
    C469   H484      0.94816      .   S
    C469   C258      1.39295      .   S
    C466   H481      0.94816      .   S
    C466   C255      1.39295      .   S
    H720   C675      0.98004      .   S
    H721   C676      0.98004      .   S
    H725   C680      0.98004      .   S
    H724   C679      0.98004      .   S
    O1151  C1181     1.00003      .   S
    O1152  C1182     1.00003      .   S
    C1162  O1132     1.29136      .   S
    O1148  C1178     1.00003      .   S
    O1147  C1177     1.00003      .   S
    C1166  O1136     1.29136      .   S
    C1167  O1137     1.29136      .   S
    C1163  O1133     1.29136      .   S
    C676   N631      1.39767      .   S
    C676   H691      0.98043      .   S
    C675   N630      1.39767      .   S
    C675   H690      0.98043      .   S
    C679   N634      1.39767      .   S
    C679   H694      0.98043      .   S
    C680   N635      1.39767      .   S
    C680   H695      0.98043      .   S
    N525   C254      1.37384      .   S
    N529   C258      1.37384      .   S
    N526   C255      1.37384      .   S
    N530   C259      1.37384      .   S
    C907   O128      1.29640      .   S
    C906   O127      1.29640      .   S
    C911   O132      1.29640      .   S
    C910   O131      1.29640      .   S
    N635   C650      1.33797      .   S
    N630   C645      1.33797      .   S
    N634   C649      1.33797      .   S
    N631   C646      1.33797      .   S
    O823   C838      1.28140      .   S
    O828   C203      1.28140      .   S
    O827   C202      1.28140      .   S
    O824   C199      1.28140      .   S
    C877   N847      1.34355      .   S
    C877   O143      1.27664      .   S
    C876   N846      1.34355      .   S
    C876   O142      1.27664      .   S
    C881   N851      1.34355      .   S
    C881   O147      1.27664      .   S
    C880   N850      1.34355      .   S
    C880   O146      1.27664      .   S
    N847   C892      1.47292      .   S
    N850   C895      1.47292      .   S
    N846   C891      1.47292      .   S
    N851   C896      1.47292      .   S
    C649   H664      0.95082      .   S
    C649   O619      1.18320      .   S
    C646   H661      0.95082      .   S
    C646   O616      1.18320      .   S
    C645   H660      0.95082  1_545   S
    C645   O615      1.18320      .   S
    C650   H665      0.95082  1_565   S
    C650   O620      1.18320      .   S
    N440   C164      1.37856      .   S
    N440   N455      1.33892      .   S
    N439   C163      1.37856      .   S
    N439   N454      1.33892      .   S
    N435   C159      1.37856      .   S
    N435   N450      1.33892      .   S
    N436   C160      1.37856      .   S
    N436   N451      1.33892      .   S
    O147   C203      1.27158      .   S
    O143   C199      1.27158      .   S
    O142   C838      1.27158      .   S
    O146   C202      1.27158      .   S
    C1039  N1017     1.91130      .   S
    C1036  N1014     1.91130      .   S
    C1040  N1018     1.91130      .   S
    C1035  N1013     1.91130      .   S
    C159   C404      1.37131      .   S
    C164   C409      1.37131      .   S
    C160   C405      1.37131      .   S
    C163   C408      1.37131      .   S
    N455   C575      1.36668      .   S
    N454   C574      1.36668      .   S
    N451   C571      1.36668      .   S
    N450   C550      1.36668      .   S
    N269   C344      1.41969      .   S
    N269   N284      1.42025      .   S
    N270   C345      1.41969      .   S
    N270   N285      1.42025      .   S
    N273   C348      1.41969      .   S
    N273   N288      1.42025      .   S
    N274   C349      1.41969      .   S
    N274   N289      1.42025      .   S
    H513   C498      0.95047      .   S
    H509   C494      0.95047      .   S
    H508   C493      0.95047      .   S
    H512   C497      0.95047      .   S
    H237   C222      0.95110      .   S
    H238   C223      0.95110      .   S
    H242   C227      0.95110      .   S
    H241   C226      0.95110      .   S
    C177   C498      1.34858      .   S
    C177   N120      1.32464      .   S
    C176   C497      1.34858      .   S
    C176   N119      1.32464      .   S
    C173   C494      1.34858      .   S
    C173   N116      1.32464      .   S
    C172   C493      1.34858      .   S
    C172   N115      1.32464      .   S
    C344   C314      1.41901      .   S
    C349   C319      1.41901      .   S
    C348   C318      1.41901      .   S
    C345   C315      1.41901      .   S
    C497   C376      1.38746      .   S
    C498   C377      1.38746      .   S
    C494   C373      1.38746      .   S
    C493   C372      1.38746      .   S
    C222   C187      1.38458      .   S
    C222   C598      1.35892      .   S
    C223   C188      1.38458      .   S
    C223   C599      1.35892      .   S
    C226   C191      1.38458      .   S
    C226   C602      1.35892      .   S
    C227   C192      1.38458      .   S
    C227   C603      1.35892      .   S
    C191   N558      1.32159      .   S
    C187   N554      1.32159      .   S
    C188   N555      1.32159      .   S
    C192   N559      1.32159      .   S
    N284   C299      1.42040      .   S
    N285   C300      1.42040      .   S
    N288   C303      1.42040      .   S
    N289   C304      1.42040      .   S
    C404   C550      1.38039      .   S
    C404   H419      0.94928      .   S
    C405   C571      1.38039      .   S
    C405   H420      0.94928      .   S
    C408   C574      1.38039      .   S
    C408   H423      0.94928      .   S
    C409   C575      1.38039      .   S
    C409   H424      0.94928      .   S
    C1206  O1121     1.14503      .   S
    C1206  O1109     1.32179      .   S
    O1121  C1205     1.14503      .   S
    C1209  O1123     1.14503  1_565   S
    C1209  O1112     1.32179      .   S
    C1210  O1123     1.14503  1_655   S
    C1210  O1113     1.32179      .   S
    C1205  O1108     1.32179      .   S
    N115   N387      1.31686      .   S
    N120   N392      1.31686      .   S
    N119   N391      1.31686      .   S
    N116   N388      1.31686      .   S
    C372   N387      1.31076      .   S
    C373   N388      1.31076      .   S
    C377   N392      1.31076      .   S
    C376   N391      1.31076      .   S
    C319   C304      1.42021      .   S
    C319   H334      0.95166      .   S
    C318   C303      1.42021      .   S
    C318   H333      0.95166      .   S
    C315   C300      1.42021      .   S
    C315   H330      0.95166      .   S
    C314   C299      1.42021      .   S
    C314   H329      0.95166      .   S
    C603   N362      1.33941      .   S
    C602   N361      1.33941      .   S
    C599   N358      1.33941      .   S
    C598   N357      1.33941      .   S
    O970   C1067     1.14126      .   S
    O968   C1064     1.14126      .   S
    O967   C1063     1.14126      .   S
    O971   C1068     1.14126      .   S
    N558   N361      1.32020      .   S
    N559   N362      1.32020      .   S
    N554   N357      1.32020      .   S
    N555   N358      1.32020      .   S
    O923   C863      1.25226      .   S
    O924   C864      1.25226      .   S
    O927   C867      1.25226      .   S
    O928   C868      1.25226      .   S
    C1224  O1112     1.79634  1_655   S
    C1220  O1108     1.79634      .   S
    C1221  O1109     1.79634      .   S
    C1225  O1113     1.79634  1_455   S
    O90    C864      1.22985      .   S
    O89    C863      1.22985      .   S
    O93    C867      1.22985      .   S
    O94    C868      1.22985      .   S
    C1068  N1053     1.37583      .   S
    C1067  N1052     1.37583      .   S
    C1064  N1049     1.37583      .   S
    C1063  N1048     1.37583      .   S
    O109   C815      1.25924      .   S
    O108   C814      1.25924      .   S
    O105   C811      1.25924      .   S
    O104   C810      1.25924      .   S
    C814   O799      1.29680      .   S
    C815   O800      1.29680      .   S
    C811   O796      1.29680      .   S
    C810   O795      1.29680      .   S
    H45    C42       0.97999      .   S
    H775   C730      0.97999      .   S
    H787   C742      0.97999      .   S
    H786   C741      0.97999      .   S
    C32    N29       1.35627      .   S
    C32    C24       1.35551  1_455   S
    C580   N535      1.35627      .   S
    C580   C460      1.35551  1_655   S
    C592   N547      1.35627      .   S
    C592   C472      1.35551      .   S
    C591   N546      1.35627      .   S
    C591   C471      1.35551      .   S
    H771   C741      0.98260      .   S
    H772   C742      0.98260      .   S
    H760   C730      0.98260      .   S
    H44    C42       0.98260      .   S
    N29    N28       1.33553      .   S
    N535   N520      1.33553      .   S
    N546   N531      1.33553      .   S
    N547   N532      1.33553      .   S
    C42    H43       0.97928      .   S
    C42    N35       1.54773      .   S
    C741   H756      0.97928      .   S
    C741   N636      1.54773      .   S
    C742   H757      0.97928      .   S
    C742   N637      1.54773      .   S
    C730   H745      0.97928      .   S
    C730   N625      1.54773      .   S
    N1052  C1097     1.63083      .   S
    N1052  C1082     1.56565      .   S
    N1048  C1093     1.63083      .   S
    N1048  C1078     1.56565      .   S
    N1049  C1094     1.63083      .   S
    N1049  C1079     1.56565      .   S
    N1053  C1098     1.63083      .   S
    N1053  C1083     1.56565      .   S
    H40    C38       0.97832      .   S
    H700   C670      0.97832      .   S
    H711   C681      0.97832      .   S
    H712   C682      0.97832      .   S
    C61    N57       1.49538      .   S
    C993   N933      1.49538      .   S
    C1004  N944      1.49538      .   S
    C1005  N945      1.49538      .   S
    O220   C913      1.34126      .   S
    O216   C909      1.34126      .   S
    O219   C912      1.34126      .   S
    O215   C908      1.34126      .   S
    N57    C60       1.47808  1_565   S
    N945   C990      1.47808      .   S
    N933   C978      1.47808  1_545   S
    N944   C989      1.47808      .   S
    C24    H25       0.94816      .   S
    C24    C9        1.39295  1_655   S
    C460   H475      0.94816      .   S
    C460   C249      1.39295  1_455   S
    C472   H487      0.94816      .   S
    C472   C261      1.39295      .   S
    C471   H486      0.94816      .   S
    C471   C260      1.39295      .   S
    H41    C38       0.98004      .   S
    H727   C682      0.98004      .   S
    H726   C681      0.98004      .   S
    H715   C670      0.98004      .   S
    C73    O71       1.29136  1_655   S
    O72    C74       1.00003      .   S
    C1169  O1139     1.29136      .   S
    O1153  C1183     1.00003      .   S
    O1142  C1172     1.00003      .   S
    O1154  C1184     1.00003      .   S
    C1157  O1127     1.29136  1_455   S
    C1168  O1138     1.29136      .   S
    C38    N35       1.39767      .   S
    C38    H39       0.98043      .   S
    C681   N636      1.39767      .   S
    C681   H696      0.98043      .   S
    C670   N625      1.39767      .   S
    C670   H685      0.98043      .   S
    C682   N637      1.39767      .   S
    C682   H697      0.98043      .   S
    N28    C9        1.37384      .   S
    N532   C261      1.37384      .   S
    N520   C249      1.37384      .   S
    N531   C260      1.37384      .   S
    C913   O134      1.29640      .   S
    C908   O129      1.29640      .   S
    C909   O130      1.29640      .   S
    C912   O133      1.29640      .   S
    N35    C36       1.33797      .   S
    N636   C651      1.33797      .   S
    N637   C652      1.33797      .   S
    N625   C640      1.33797      .   S
    O826   C201      1.28140      .   S
    O825   C200      1.28140      .   S
    O830   C205      1.28140      .   S
    O829   C204      1.28140      .   S
    C883   N853      1.34355      .   S
    C883   O149      1.27664      .   S
    C882   N852      1.34355      .   S
    C882   O148      1.27664      .   S
    C879   N849      1.34355      .   S
    C879   O145      1.27664      .   S
    C878   N848      1.34355      .   S
    C878   O144      1.27664      .   S
    N849   C894      1.47292      .   S
    N848   C893      1.47292      .   S
    N852   C897      1.47292      .   S
    N853   C898      1.47292      .   S
    C36    H37       0.95082      .   S
    C36    O34       1.18320      .   S
    C652   H667      0.95082      .   S
    C652   O622      1.18320      .   S
    C651   H666      0.95082      .   S
    C651   O621      1.18320      .   S
    C640   H655      0.95082      .   S
    C640   O610      1.18320      .   S
    N22    C4        1.37856      .   S
    N22    N23       1.33892      .   S
    N430   C154      1.37856      .   S
    N430   N445      1.33892      .   S
    N442   C166      1.37856      .   S
    N442   N457      1.33892      .   S
    N441   C165      1.37856      .   S
    N441   N456      1.33892      .   S
    O149   C205      1.27158      .   S
    O148   C204      1.27158      .   S
    O145   C201      1.27158      .   S
    O144   C200      1.27158      .   S
    C64    N62       1.91130  1_455   S
    C1030  N1008     1.91130  1_655   S
    C1041  N1019     1.91130      .   S
    C1042  N1020     1.91130      .   S
    C4     C19       1.37131      .   S
    C166   C411      1.37131      .   S
    C165   C410      1.37131      .   S
    C154   C399      1.37131      .   S
    N23    C31       1.36668      .   S
    N445   C566      1.36668      .   S
    N457   C577      1.36668      .   S
    N456   C576      1.36668      .   S
    N10    C15       1.41969      .   S
    N10    N11       1.42025      .   S
    N276   C351      1.41969      .   S
    N276   N291      1.42025      .   S
    N275   C350      1.41969      .   S
    N275   N290      1.42025      .   S
    N264   C339      1.41969      .   S
    N264   N279      1.42025      .   S
    H511   C496      0.95047      .   S
    H510   C495      0.95047      .   S
    H514   C499      0.95047      .   S
    H515   C500      0.95047      .   S
    H244   C229      0.95110      .   S
    H243   C228      0.95110      .   S
    H240   C225      0.95110      .   S
    H239   C224      0.95110      .   S
    C179   C500      1.34858      .   S
    C179   N122      1.32464      .   S
    C178   C499      1.34858      .   S
    C178   N121      1.32464      .   S
    C175   C496      1.34858      .   S
    C175   N118      1.32464      .   S
    C174   C495      1.34858      .   S
    C174   N117      1.32464      .   S
    C15    C13       1.41901      .   S
    C339   C309      1.41901      .   S
    C351   C321      1.41901      .   S
    C350   C320      1.41901      .   S
    C495   C374      1.38746      .   S
    C500   C379      1.38746      .   S
    C499   C378      1.38746      .   S
    C496   C375      1.38746      .   S
    C225   C190      1.38458      .   S
    C225   C601      1.35892      .   S
    C229   C194      1.38458      .   S
    C229   C605      1.35892      .   S
    C228   C193      1.38458      .   S
    C228   C604      1.35892      .   S
    C224   C189      1.38458      .   S
    C224   C600      1.35892      .   S
    C189   N556      1.32159      .   S
    C194   N561      1.32159      .   S
    C193   N560      1.32159      .   S
    C190   N557      1.32159      .   S
    N11    C12       1.42040      .   S
    N291   C306      1.42040      .   S
    N290   C305      1.42040      .   S
    N279   C294      1.42040      .   S
    C19    C31       1.38039      .   S
    C19    H20       0.94928      .   S
    C399   C566      1.38039      .   S
    C399   H414      0.94928      .   S
    C411   C577      1.38039      .   S
    C411   H426      0.94928      .   S
    C410   C576      1.38039      .   S
    C410   H425      0.94928      .   S
    C1211  O1124     1.14503      .   S
    C1211  O1114     1.32179      .   S
    O1122  C1208     1.14503      .   S
    O1122  C1207     1.14503      .   S
    C1208  O1111     1.32179      .   S
    O1124  C1212     1.14503      .   S
    C1207  O1110     1.32179      .   S
    C1212  O1115     1.32179      .   S
    N117   N389      1.31686      .   S
    N118   N390      1.31686      .   S
    N121   N393      1.31686      .   S
    N122   N394      1.31686      .   S
    C378   N393      1.31076      .   S
    C379   N394      1.31076      .   S
    C375   N390      1.31076      .   S
    C374   N389      1.31076      .   S
    C13    C12       1.42021      .   S
    C13    H14       0.95166      .   S
    C321   C306      1.42021      .   S
    C321   H336      0.95166      .   S
    C320   C305      1.42021      .   S
    C320   H335      0.95166      .   S
    C309   C294      1.42021      .   S
    C309   H324      0.95166      .   S
    C605   N364      1.33941      .   S
    C600   N359      1.33941      .   S
    C604   N363      1.33941      .   S
    C601   N360      1.33941      .   S
    O973   C1070     1.14126      .   S
    O972   C1069     1.14126      .   S
    O948   C1065     1.14126      .   S
    O969   C1066     1.14126      .   S
    N560   N363      1.32020      .   S
    N561   N364      1.32020      .   S
    N557   N360      1.32020      .   S
    N556   N359      1.32020      .   S
    O918   C858      1.25226      .   S
    O930   C870      1.25226      .   S
    O929   C869      1.25226      .   S
    O56    C52       1.25226      .   S
    C1222  O1110     1.79634      .   S
    C1223  O1111     1.79634      .   S
    C1226  O1114     1.79634      .   S
    C1227  O1115     1.79634      .   S
    O0     C52       1.22985      .   S
    O96    C870      1.22985      .   S
    O84    C858      1.22985      .   S
    O95    C869      1.22985      .   S
    C1070  N1055     1.37583      .   S
    C1069  N1054     1.37583      .   S
    C1066  N1051     1.37583      .   S
    C1065  N1050     1.37583      .   S
    O1     C47       1.25924      .   S
    O99    C805      1.25924      .   S
    O78    C816      1.25924      .   S
    O79    C817      1.25924      .   S
    C47    O46       1.29680      .   S
    C816   O801      1.29680      .   S
    C805   O790      1.29680      .   S
    C817   O802      1.29680      .   S
    H777   C732      0.97999      .   S
    H776   C731      0.97999      .   S
    H789   C744      0.97999      .   S
    H788   C743      0.97999      .   S
    C594   N549      1.35627      .   S
    C594   C474      1.35551      .   S
    C582   N537      1.35627      .   S
    C582   C462      1.35551      .   S
    C581   N536      1.35627      .   S
    C581   C461      1.35551      .   S
    C593   N548      1.35627      .   S
    C593   C473      1.35551      .   S
    H761   C731      0.98260      .   S
    H774   C744      0.98260      .   S
    H762   C732      0.98260      .   S
    H773   C743      0.98260      .   S
    N537   N522      1.33553      .   S
    N536   N521      1.33553      .   S
    N548   N533      1.33553      .   S
    N549   N534      1.33553      .   S
    C731   H746      0.97928  1_545   S
    C731   N626      1.54773      .   S
    C744   H759      0.97928  1_565   S
    C744   N639      1.54773      .   S
    C732   H747      0.97928      .   S
    C732   N627      1.54773      .   S
    C743   H758      0.97928      .   S
    C743   N638      1.54773      .   S
    N1051  C1096     1.63083      .   S
    N1051  C1081     1.56565      .   S
    N1054  C1099     1.63083      .   S
    N1054  C1084     1.56565      .   S
    N1055  C1100     1.63083  1_565   S
    N1055  C1085     1.56565      .   S
    N1050  C1095     1.63083  1_545   S
    N1050  C1080     1.56565      .   S
    H714   C684      0.97832      .   S
    H713   C683      0.97832      .   S
    H702   C672      0.97832      .   S
    H701   C671      0.97832      .   S
    C1007  N947      1.49538      .   S
    C1006  N946      1.49538      .   S
    C995   N935      1.49538      .   S
    C994   N934      1.49538      .   S
    O50    C55       1.34126  1_455   S
    O210   C903      1.34126  1_655   S
    O839   C914      1.34126      .   S
    O840   C915      1.34126      .   S
    N946   C991      1.47808      .   S
    N935   C980      1.47808      .   S
    N934   C979      1.47808      .   S
    N947   C992      1.47808      .   S
    C474   H489      0.94816  1_565   S
    C474   C263      1.39295      .   S
    C473   H488      0.94816      .   S
    C473   C262      1.39295      .   S
    C461   H476      0.94816  1_545   S
    C461   C250      1.39295      .   S
    C462   H477      0.94816      .   S
    C462   C251      1.39295      .   S
    H717   C672      0.98004      .   S
    H728   C683      0.98004      .   S
    H729   C684      0.98004      .   S
    H716   C671      0.98004      .   S
    C1158  O1128     1.29136      .   S
    O1143  C1173     1.00003      .   S
    C1171  O1141     1.29136      .   S
    C1159  O1129     1.29136      .   S
    C1170  O1140     1.29136      .   S
    O1144  C1174     1.00003      .   S
    O1156  C1186     1.00003      .   S
    O1155  C1185     1.00003      .   S
    C672   N627      1.39767      .   S
    C672   H687      0.98043      .   S
    C671   N626      1.39767      .   S
    C671   H686      0.98043      .   S
    C684   N639      1.39767      .   S
    C684   H699      0.98043      .   S
    C683   N638      1.39767      .   S
    C683   H698      0.98043      .   S
    N533   C262      1.37384      .   S
    N521   C250      1.37384      .   S
    N522   C251      1.37384      .   S
    N534   C263      1.37384      .   S
    C55    O2        1.29640      .   S
    C903   O124      1.29640      .   S
    C914   O135      1.29640      .   S
    C915   O136      1.29640      .   S
    N626   C641      1.33797      .   S
    N627   C642      1.33797      .   S
    N639   C654      1.33797      .   S
    N638   C653      1.33797      .   S
    O48    C49       1.28140      .   S
    O831   C206      1.28140      .   S
    O820   C835      1.28140      .   S
    O832   C207      1.28140      .   S
    C53    N51       1.34355      .   S
    C53    O3        1.27664      .   S
    C884   N854      1.34355      .   S
    C884   O150      1.27664      .   S
    C885   N855      1.34355      .   S
    C885   O151      1.27664      .   S
    C873   N843      1.34355      .   S
    C873   O139      1.27664      .   S
    N51    C54       1.47292      .   S
    N854   C899      1.47292      .   S
    N843   C888      1.47292      .   S
    N855   C900      1.47292      .   S
    C653   H668      0.95082      .   S
    C653   O623      1.18320      .   S
    C642   H657      0.95082      .   S
    C642   O612      1.18320      .   S
    C641   H656      0.95082  1_545   S
    C641   O611      1.18320      .   S
    C654   H669      0.95082  1_565   S
    C654   O624      1.18320      .   S
    N444   C168      1.37856      .   S
    N444   N459      1.33892      .   S
    N443   C167      1.37856      .   S
    N443   N458      1.33892      .   S
    N432   C156      1.37856      .   S
    N432   N447      1.33892      .   S
    N431   C155      1.37856      .   S
    N431   N446      1.33892      .   S
    O3     C49       1.27158      .   S
    O151   C207      1.27158      .   S
    O150   C206      1.27158      .   S
    O139   C835      1.27158      .   S
    C1031  N1009     1.91130      .   S
    C1032  N1010     1.91130      .   S
    C1043  N1021     1.91130      .   S
    C1044  N1022     1.91130      .   S
    C168   C413      1.37131      .   S
    C167   C412      1.37131      .   S
    C156   C401      1.37131      .   S
    C155   C400      1.37131      .   S
    N459   C579      1.36668      .   S
    N458   C578      1.36668      .   S
    N447   C568      1.36668      .   S
    N446   C567      1.36668      .   S
    N278   C353      1.41969      .   S
    N278   N293      1.42025      .   S
    N265   C340      1.41969      .   S
    N265   N280      1.42025      .   S
    N266   C341      1.41969      .   S
    N266   N281      1.42025      .   S
    N277   C352      1.41969      .   S
    N277   N292      1.42025      .   S
    H27    C26       0.95047      .   S
    H517   C502      0.95047      .   S
    H516   C501      0.95047      .   S
    H505   C490      0.95047      .   S
    H234   C82       0.95110      .   S
    H245   C230      0.95110      .   S
    H8     C7        0.95110      .   S
    H246   C231      0.95110      .   S
    C5     C26       1.34858      .   S
    C5     N21       1.32464      .   S
    C169   C490      1.34858      .   S
    C169   N112      1.32464      .   S
    C180   C501      1.34858      .   S
    C180   N123      1.32464      .   S
    C181   C502      1.34858      .   S
    C181   N427      1.32464      .   S
    C353   C323      1.41901      .   S
    C352   C322      1.41901      .   S
    C341   C311      1.41901      .   S
    C340   C310      1.41901      .   S
    C26    C17       1.38746      .   S
    C490   C369      1.38746      .   S
    C502   C381      1.38746      .   S
    C501   C380      1.38746      .   S
    C7     C6        1.38458      .   S
    C7     C33       1.35892      .   S
    C82    C184      1.38458      .   S
    C82    C595      1.35892      .   S
    C231   C196      1.38458      .   S
    C231   C607      1.35892      .   S
    C230   C195      1.38458      .   S
    C230   C606      1.35892      .   S
    C196   N563      1.32159      .   S
    C184   N551      1.32159      .   S
    C195   N562      1.32159      .   S
    C6     N30       1.32159      .   S
    N293   C308      1.42040      .   S
    N292   C307      1.42040      .   S
    N281   C296      1.42040      .   S
    N280   C295      1.42040      .   S
    C413   C579      1.38039      .   S
    C413   H111      0.94928      .   S
    C412   C578      1.38039      .   S
    C412   H110      0.94928      .   S
    C401   C568      1.38039      .   S
    C401   H416      0.94928      .   S
    C400   C567      1.38039      .   S
    C400   H415      0.94928      .   S
    C76    O70       1.14503      .   S
    C76    O69       1.32179      .   S
    O70    C1202     1.14503  1_455   S
    C1202  O1105     1.32179      .   S
    C1214  O1125     1.14503      .   S
    C1214  O1117     1.32179      .   S
    O1125  C1213     1.14503  1_545   S
    C1213  O1116     1.32179      .   S
    N21    N18       1.31686      .   S
    N427   N396      1.31686      .   S
    N112   N384      1.31686      .   S
    N123   N395      1.31686      .   S
    C17    N18       1.31076      .   S
    C380   N395      1.31076      .   S
    C381   N396      1.31076      .   S
    C369   N384      1.31076      .   S
    C311   C296      1.42021      .   S
    C311   H326      0.95166      .   S
    C323   C308      1.42021      .   S
    C323   H338      0.95166      .   S
    C310   C295      1.42021      .   S
    C310   H325      0.95166      .   S
    C322   C307      1.42021      .   S
    C322   H337      0.95166      .   S
    C33    N16       1.33941      .   S
    C595   N354      1.33941      .   S
    C606   N365      1.33941      .   S
    C607   N366      1.33941      .   S
    O59    C66       1.14126      .   S
    O964   C1060     1.14126      .   S
    O974   C1071     1.14126      .   S
    O975   C1072     1.14126      .   S
    N30    N16       1.32020      .   S
    N551   N354      1.32020      .   S
    N562   N365      1.32020      .   S
    N563   N366      1.32020      .   S
    O931   C871      1.25226      .   S
    O920   C860      1.25226      .   S
    O919   C859      1.25226      .   S
    O932   C872      1.25226      .   S
    C77    O69       1.79634  1_655   S
    C1229  O1117     1.79634      .   S
    C1217  O1105     1.79634  1_455   S
    C1228  O1116     1.79634      .   S
    O97    C871      1.22985      .   S
    O98    C872      1.22985      .   S
    O85    C859      1.22985      .   S
    O86    C860      1.22985      .   S
    C66    N65       1.37583      .   S
    C1072  N1057     1.37583      .   S
    C1060  N1045     1.37583      .   S
    C1071  N1056     1.37583      .   S
    O100   C806      1.25924      .   S
    O101   C807      1.25924      .   S
    O80    C818      1.25924      .   S
    O81    C819      1.25924      .   S
    C806   O791      1.29680      .   S
    C807   O792      1.29680      .   S
    C818   O803      1.29680      .   S
    C819   O804      1.29680      .   S
    H778   C733      0.97999      .   S
    H779   C734      0.97999      .   S
    H782   C737      0.97999      .   S
    H783   C738      0.97999      .   S
    C587   N542      1.35627      .   S
    C587   C467      1.35551  1_455   S
    C584   N539      1.35627      .   S
    C584   C464      1.35551      .   S
    C588   N543      1.35627      .   S
    C588   C468      1.35551  1_655   S
    C583   N538      1.35627      .   S
    C583   C463      1.35551      .   S
    H768   C738      0.98260      .   S
    H767   C737      0.98260      .   S
    H764   C734      0.98260      .   S
    H763   C733      0.98260      .   S
    N538   N523      1.33553      .   S
    N539   N524      1.33553      .   S
    N542   N527      1.33553      .   S
    N543   N528      1.33553      .   S
    C738   H753      0.97928      .   S
    C738   N633      1.54773      .   S
    C737   H752      0.97928      .   S
    C737   N632      1.54773      .   S
    C734   H749      0.97928      .   S
    C734   N629      1.54773      .   S
    C733   H748      0.97928      .   S
    C733   N628      1.54773      .   S
    N65    C68       1.63083      .   S
    N65    C67       1.56565      .   S
    N1045  C1090     1.63083      .   S
    N1045  C1075     1.56565      .   S
    N1057  C1102     1.63083      .   S
    N1057  C1087     1.56565      .   S
    N1056  C1101     1.63083      .   S
    N1056  C1086     1.56565      .   S
    H703   C673      0.97832      .   S
    H708   C678      0.97832      .   S
    H707   C677      0.97832      .   S
    H704   C674      0.97832      .   S
    C1001  N941      1.49538      .   S
    C1000  N940      1.49538      .   S
    C997   N937      1.49538      .   S
    C996   N936      1.49538      .   S
    O212   C905      1.34126      .   S
    O211   C904      1.34126      .   S
    O841   C916      1.34126      .   S
    O842   C917      1.34126      .   S
    N936   C981      1.47808  1_565   S
    N937   C982      1.47808  1_545   S
    N940   C985      1.47808      .   S
    N941   C986      1.47808      .   S
    C463   H478      0.94816      .   S
    C463   C252      1.39295      .   S
    C464   H479      0.94816      .   S
    C464   C253      1.39295      .   S
    C467   H482      0.94816      .   S
    C467   C256      1.39295  1_655   S
    C468   H483      0.94816      .   S
    C468   C257      1.39295  1_455   S
    H723   C678      0.98004      .   S
    H722   C677      0.98004      .   S
    H719   C674      0.98004      .   S
    H718   C673      0.98004      .   S
    C1161  O1131     1.29136      .   S
    O1150  C1180     1.00003      .   S
    O1145  C1175     1.00003      .   S
    C1165  O1135     1.29136  1_455   S
    C1164  O1134     1.29136  1_655   S
    O1149  C1179     1.00003      .   S
    C1160  O1130     1.29136      .   S
    O1146  C1176     1.00003      .   S
    C678   N633      1.39767      .   S
    C678   H693      0.98043      .   S
    C677   N632      1.39767      .   S
    C677   H692      0.98043      .   S
    C674   N629      1.39767      .   S
    C674   H689      0.98043      .   S
    C673   N628      1.39767      .   S
    C673   H688      0.98043      .   S
    N523   C252      1.37384      .   S
    N524   C253      1.37384      .   S
    N527   C256      1.37384      .   S
    N528   C257      1.37384      .   S
    C917   O138      1.29640      .   S
    C916   O137      1.29640      .   S
    C905   O126      1.29640      .   S
    C904   O125      1.29640      .   S
    N629   C644      1.33797      .   S
    N628   C643      1.33797      .   S
    N632   C647      1.33797      .   S
    N633   C648      1.33797      .   S
    O822   C837      1.28140      .   S
    O821   C836      1.28140      .   S
    O833   C208      1.28140      .   S
    O834   C209      1.28140      .   S
    C887   N857      1.34355      .   S
    C887   O153      1.27664      .   S
    C886   N856      1.34355      .   S
    C886   O152      1.27664      .   S
    C875   N845      1.34355      .   S
    C875   O141      1.27664      .   S
    C874   N844      1.34355      .   S
    C874   O140      1.27664      .   S
    N844   C889      1.47292      .   S
    N857   C902      1.47292      .   S
    N856   C901      1.47292      .   S
    N845   C890      1.47292      .   S
    C648   H663      0.95082      .   S
    C648   O618      1.18320      .   S
    C643   H658      0.95082      .   S
    C643   O613      1.18320      .   S
    C647   H662      0.95082      .   S
    C647   O617      1.18320      .   S
    C644   H659      0.95082      .   S
    C644   O614      1.18320      .   S
    N433   C157      1.37856      .   S
    N433   N448      1.33892      .   S
    N434   C158      1.37856      .   S
    N434   N449      1.33892      .   S
    N437   C161      1.37856      .   S
    N437   N452      1.33892      .   S
    N438   C162      1.37856      .   S
    N438   N453      1.33892      .   S
    O153   C209      1.27158      .   S
    O152   C208      1.27158      .   S
    O140   C836      1.27158      .   S
    O141   C837      1.27158      .   S
    C1038  N1016     1.91130  1_655   S
    C1037  N1015     1.91130  1_455   S
    C1034  N1012     1.91130      .   S
    C1033  N1011     1.91130      .   S
    N271   C346      1.41969      .   S
    N272   C347      1.41969      .   S
    N268   C343      1.41969      .   S
    N267   C342      1.41969      .   S
    H507   C492      0.95047      .   S
    H518   C503      0.95047      .   S
    H506   C491      0.95047      .   S
    H519   C504      0.95047      .   S
    H248   C233      0.95110      .   S
    H247   C232      0.95110      .   S
    H236   C221      0.95110      .   S
    H235   C83       0.95110      .   S
    C183   C504      1.34858      .   S
    C182   C503      1.34858      .   S
    C171   C492      1.34858      .   S
    C170   C491      1.34858      .   S
