# CIF file generated by openbabel 2.4.90, see http://openbabel.sf.net
data_I
_chemical_name_common ''
_cell_length_a 39.222
_cell_length_b 26.018
_cell_length_c 27.887
_cell_angle_alpha 90
_cell_angle_beta 90
_cell_angle_gamma 90
_space_group_name_H-M_alt 'P 1'
_space_group_name_Hall 'P 1'
loop_
    _symmetry_equiv_pos_as_xyz
    x,y,z
loop_
    _atom_site_label
    _atom_site_type_symbol
    _atom_site_fract_x
    _atom_site_fract_y
    _atom_site_fract_z
    _atom_site_occupancy
    C0      C    0.12380   0.42160   0.46680   1.000
    C1      C    0.08540   0.39550   0.73350   1.000
    C2      C    0.91780   0.10480   0.75050   1.000
    C3      C    0.88300   0.09610   0.74860   1.000
    H4      H    0.86670   0.11160   0.72790   1.000
    C5      C    0.00190   0.21360   0.41900   1.000
    N6      N    0.90586   0.03190   0.47350   1.000
    N7      N    0.93159   0.05560   0.50170   1.000
    C8      C    0.91536   0.08830   0.53550   1.000
    C9      C    0.87961   0.08480   0.52810   1.000
    H10     H    0.86260   0.10270   0.54580   1.000
    C11     C    0.87374   0.05000   0.48980   1.000
    N12     N    0.90720   0.04810   0.80460   1.000
    C13     C    0.12390   0.43050   0.77770   1.000
    N14     N    0.09490   0.45070   0.79150   1.000
    C15     C    0.11780   0.38570   0.50180   1.000
    H16     H    0.13430   0.36870   0.52100   1.000
    N17     N    0.07180   0.42850   0.76420   1.000
    N18     N    0.09250   0.43700   0.44950   1.000
    N19     N    0.06740   0.41130   0.47150   1.000
    C20     C    0.99610   0.24630   0.38030   1.000
    H21     H    0.98990   0.28150   0.38150   1.000
    C22     C    0.11940   0.39550   0.74070   1.000
    H23     H    0.13630   0.37600   0.72440   1.000
    N24     N    0.00960   0.16550   0.40180   1.000
    N25     N    0.00920   0.16860   0.35400   1.000
    N26     N    0.93150   0.07540   0.78400   1.000
    C27     C    0.08290   0.37910   0.50350   1.000
    C28     C    0.00110   0.21720   0.34060   1.000
    C29     C    0.87770   0.06020   0.78320   1.000
    C30     C    0.11700   0.90390   0.74860   1.000
    C31     C    0.13300   0.15390   0.99860   1.000
    H32     H    0.88430   0.38130   0.77100   1.000
    H33     H    0.61570   0.11870   0.77100   1.000
    N34     N    0.92820   0.57150   0.76420   1.000
    N35     N    0.32180   0.82150   0.01420   1.000
    N36     N    0.17820   0.67850   0.01420   1.000
    N37     N    0.57180   0.42850   0.26420   1.000
    N38     N    0.42820   0.57150   0.26420   1.000
    N39     N    0.82180   0.82150   0.51420   1.000
    N40     N    0.67820   0.67850   0.51420   1.000
    N41     N    0.07180   0.92850   0.26420   1.000
    N42     N    0.92820   0.07150   0.26420   1.000
    N43     N    0.32180   0.32150   0.51420   1.000
    N44     N    0.17820   0.17850   0.51420   1.000
    N45     N    0.57180   0.92850   0.76420   1.000
    C46     C    0.87620   0.57840   0.46680   1.000
    C47     C    0.37380   0.82840   0.71680   1.000
    C48     C    0.12620   0.67160   0.71680   1.000
    C49     C    0.62380   0.42160   0.96680   1.000
    C50     C    0.37620   0.57840   0.96680   1.000
    C51     C    0.87380   0.82840   0.21680   1.000
    C52     C    0.62620   0.67160   0.21680   1.000
    C53     C    0.12380   0.92160   0.96680   1.000
    C54     C    0.87620   0.07840   0.96680   1.000
    C55     C    0.37380   0.32840   0.21680   1.000
    C56     C    0.12620   0.17160   0.21680   1.000
    C57     C    0.62380   0.92160   0.46680   1.000
    C58     C    0.37620   0.07840   0.46680   1.000
    C59     C    0.87380   0.32840   0.71680   1.000
    C60     C    0.62620   0.17160   0.71680   1.000
    C61     C    0.91460   0.60450   0.73350   1.000
    C62     C    0.33540   0.85450   0.98350   1.000
    C63     C    0.16460   0.64550   0.98350   1.000
    C64     C    0.58540   0.39550   0.23350   1.000
    C65     C    0.41460   0.60450   0.23350   1.000
    C66     C    0.83540   0.85450   0.48350   1.000
    C67     C    0.66460   0.64550   0.48350   1.000
    C68     C    0.08540   0.89550   0.23350   1.000
    C69     C    0.91460   0.10450   0.23350   1.000
    C70     C    0.33540   0.35450   0.48350   1.000
    C71     C    0.16460   0.14550   0.48350   1.000
    C72     C    0.58540   0.89550   0.73350   1.000
    C73     C    0.41460   0.10450   0.73350   1.000
    C74     C    0.83540   0.35450   0.98350   1.000
    C75     C    0.66460   0.14550   0.98350   1.000
    C76     C    0.08220   0.89520   0.75050   1.000
    C77     C    0.16780   0.14520   0.00050   1.000
    C78     C    0.33220   0.35480   0.00050   1.000
    C79     C    0.41780   0.10480   0.25050   1.000
    C80     C    0.58220   0.89520   0.25050   1.000
    C81     C    0.66780   0.14520   0.50050   1.000
    C82     C    0.83220   0.35480   0.50050   1.000
    C83     C    0.91780   0.60480   0.25050   1.000
    C84     C    0.08220   0.39520   0.25050   1.000
    C85     C    0.16780   0.64520   0.50050   1.000
    C86     C    0.33220   0.85480   0.50050   1.000
    C87     C    0.41780   0.60480   0.75050   1.000
    C88     C    0.58220   0.39520   0.75050   1.000
    C89     C    0.66780   0.64520   0.00050   1.000
    C90     C    0.83220   0.85480   0.00050   1.000
    C91     C    0.36700   0.34610   0.99860   1.000
    C92     C    0.38300   0.09610   0.24860   1.000
    C93     C    0.61700   0.90390   0.24860   1.000
    C94     C    0.63300   0.15390   0.49860   1.000
    C95     C    0.86700   0.34610   0.49860   1.000
    C96     C    0.88300   0.59610   0.24860   1.000
    C97     C    0.11700   0.40390   0.24860   1.000
    C98     C    0.13300   0.65390   0.49860   1.000
    C99     C    0.36700   0.84610   0.49860   1.000
    C100    C    0.38300   0.59610   0.74860   1.000
    C101    C    0.61700   0.40390   0.74860   1.000
    C102    C    0.63300   0.65390   0.99860   1.000
    C103    C    0.86700   0.84610   0.99860   1.000
    H104    H    0.13330   0.88840   0.72790   1.000
    H105    H    0.11670   0.13840   0.97790   1.000
    H106    H    0.38330   0.36160   0.97790   1.000
    H107    H    0.36670   0.11160   0.22790   1.000
    H108    H    0.63330   0.88840   0.22790   1.000
    H109    H    0.61670   0.13840   0.47790   1.000
    H110    H    0.88330   0.36160   0.47790   1.000
    H111    H    0.86670   0.61160   0.22790   1.000
    H112    H    0.13330   0.38840   0.22790   1.000
    H113    H    0.11670   0.63840   0.47790   1.000
    H114    H    0.38330   0.86160   0.47790   1.000
    H115    H    0.36670   0.61160   0.72790   1.000
    H116    H    0.63330   0.38840   0.72790   1.000
    H117    H    0.61670   0.63840   0.97790   1.000
    H118    H    0.88330   0.86160   0.97790   1.000
    C119    C    0.99810   0.78640   0.41900   1.000
    C120    C    0.25190   0.03640   0.66900   1.000
    C121    C    0.24810   0.46360   0.66900   1.000
    C122    C    0.50190   0.21360   0.91900   1.000
    C123    C    0.49810   0.78640   0.91900   1.000
    C124    C    0.75190   0.03640   0.16900   1.000
    C125    C    0.74810   0.46360   0.16900   1.000
    C126    C    0.00190   0.71360   0.91900   1.000
    C127    C    0.99810   0.28640   0.91900   1.000
    C128    C    0.25190   0.53640   0.16900   1.000
    C129    C    0.24810   0.96360   0.16900   1.000
    C130    C    0.50190   0.71360   0.41900   1.000
    C131    C    0.49810   0.28640   0.41900   1.000
    C132    C    0.75190   0.53640   0.66900   1.000
    C133    C    0.74810   0.96360   0.66900   1.000
    N134    N    0.09414   0.96810   0.47350   1.000
    N135    N    0.15586   0.21810   0.72350   1.000
    N136    N    0.34414   0.28190   0.72350   1.000
    N137    N    0.40586   0.03190   0.97350   1.000
    N138    N    0.59414   0.96810   0.97350   1.000
    N139    N    0.65586   0.21810   0.22350   1.000
    N140    N    0.84414   0.28190   0.22350   1.000
    N141    N    0.90586   0.53190   0.97350   1.000
    N142    N    0.09414   0.46810   0.97350   1.000
    N143    N    0.15586   0.71810   0.22350   1.000
    N144    N    0.34414   0.78190   0.22350   1.000
    N145    N    0.40586   0.53190   0.47350   1.000
    N146    N    0.59414   0.46810   0.47350   1.000
    N147    N    0.65586   0.71810   0.72350   1.000
    N148    N    0.84414   0.78190   0.72350   1.000
    N149    N    0.06841   0.94440   0.50170   1.000
    N150    N    0.18159   0.19440   0.75170   1.000
    N151    N    0.31841   0.30560   0.75170   1.000
    N152    N    0.43159   0.05560   0.00170   1.000
    N153    N    0.56841   0.94440   0.00170   1.000
    N154    N    0.68159   0.19440   0.25170   1.000
    N155    N    0.81841   0.30560   0.25170   1.000
    N156    N    0.93159   0.55560   0.00170   1.000
    N157    N    0.06841   0.44440   0.00170   1.000
    N158    N    0.18159   0.69440   0.25170   1.000
    N159    N    0.31841   0.80560   0.25170   1.000
    N160    N    0.43159   0.55560   0.50170   1.000
    N161    N    0.56841   0.44440   0.50170   1.000
    N162    N    0.68159   0.69440   0.75170   1.000
    N163    N    0.81841   0.80560   0.75170   1.000
    C164    C    0.08464   0.91170   0.53550   1.000
    C165    C    0.16536   0.16170   0.78550   1.000
    C166    C    0.33464   0.33830   0.78550   1.000
    C167    C    0.41536   0.08830   0.03550   1.000
    C168    C    0.58464   0.91170   0.03550   1.000
    C169    C    0.66536   0.16170   0.28550   1.000
    C170    C    0.83464   0.33830   0.28550   1.000
    C171    C    0.91536   0.58830   0.03550   1.000
    C172    C    0.08464   0.41170   0.03550   1.000
    C173    C    0.16536   0.66170   0.28550   1.000
    C174    C    0.33464   0.83830   0.28550   1.000
    C175    C    0.41536   0.58830   0.53550   1.000
    C176    C    0.58464   0.41170   0.53550   1.000
    C177    C    0.66536   0.66170   0.78550   1.000
    C178    C    0.83464   0.83830   0.78550   1.000
    C179    C    0.12039   0.91520   0.52810   1.000
    C180    C    0.12961   0.16520   0.77810   1.000
    C181    C    0.37039   0.33480   0.77810   1.000
    C182    C    0.37961   0.08480   0.02810   1.000
    C183    C    0.62039   0.91520   0.02810   1.000
    C184    C    0.62961   0.16520   0.27810   1.000
    C185    C    0.87039   0.33480   0.27810   1.000
    C186    C    0.87961   0.58480   0.02810   1.000
    C187    C    0.12039   0.41520   0.02810   1.000
    C188    C    0.12961   0.66520   0.27810   1.000
    C189    C    0.37039   0.83480   0.27810   1.000
    C190    C    0.37961   0.58480   0.52810   1.000
    C191    C    0.62039   0.41520   0.52810   1.000
    C192    C    0.62961   0.66520   0.77810   1.000
    C193    C    0.87039   0.83480   0.77810   1.000
    H194    H    0.13740   0.89730   0.54580   1.000
    H195    H    0.11260   0.14730   0.79580   1.000
    H196    H    0.38740   0.35270   0.79580   1.000
    H197    H    0.36260   0.10270   0.04580   1.000
    H198    H    0.63740   0.89730   0.04580   1.000
    H199    H    0.61260   0.14730   0.29580   1.000
    H200    H    0.88740   0.35270   0.29580   1.000
    H201    H    0.86260   0.60270   0.04580   1.000
    H202    H    0.13740   0.39730   0.04580   1.000
    H203    H    0.11260   0.64730   0.29580   1.000
    H204    H    0.38740   0.85270   0.29580   1.000
    H205    H    0.36260   0.60270   0.54580   1.000
    H206    H    0.63740   0.39730   0.54580   1.000
    H207    H    0.61260   0.64730   0.79580   1.000
    H208    H    0.88740   0.85270   0.79580   1.000
    C209    C    0.12626   0.95000   0.48980   1.000
    C210    C    0.12374   0.20000   0.73980   1.000
    C211    C    0.37626   0.30000   0.73980   1.000
    C212    C    0.37374   0.05000   0.98980   1.000
    C213    C    0.62626   0.95000   0.98980   1.000
    C214    C    0.62374   0.20000   0.23980   1.000
    C215    C    0.87626   0.30000   0.23980   1.000
    C216    C    0.87374   0.55000   0.98980   1.000
    C217    C    0.12626   0.45000   0.98980   1.000
    C218    C    0.12374   0.70000   0.23980   1.000
    C219    C    0.37626   0.80000   0.23980   1.000
    C220    C    0.37374   0.55000   0.48980   1.000
    C221    C    0.62626   0.45000   0.48980   1.000
    C222    C    0.62374   0.70000   0.73980   1.000
    C223    C    0.87626   0.80000   0.73980   1.000
    N224    N    0.09280   0.95190   0.80460   1.000
    N225    N    0.15720   0.20190   0.05460   1.000
    N226    N    0.34280   0.29810   0.05460   1.000
    N227    N    0.40720   0.04810   0.30460   1.000
    N228    N    0.59280   0.95190   0.30460   1.000
    N229    N    0.65720   0.20190   0.55460   1.000
    N230    N    0.84280   0.29810   0.55460   1.000
    N231    N    0.90720   0.54810   0.30460   1.000
    N232    N    0.09280   0.45190   0.30460   1.000
    N233    N    0.15720   0.70190   0.55460   1.000
    N234    N    0.34280   0.79810   0.55460   1.000
    N235    N    0.40720   0.54810   0.80460   1.000
    N236    N    0.59280   0.45190   0.80460   1.000
    N237    N    0.65720   0.70190   0.05460   1.000
    N238    N    0.84280   0.79810   0.05460   1.000
    C239    C    0.87610   0.56950   0.77770   1.000
    C240    C    0.37390   0.81950   0.02770   1.000
    C241    C    0.12610   0.68050   0.02770   1.000
    C242    C    0.62390   0.43050   0.27770   1.000
    C243    C    0.37610   0.56950   0.27770   1.000
    C244    C    0.87390   0.81950   0.52770   1.000
    C245    C    0.62610   0.68050   0.52770   1.000
    C246    C    0.12390   0.93050   0.27770   1.000
    C247    C    0.87610   0.06950   0.27770   1.000
    C248    C    0.37390   0.31950   0.52770   1.000
    C249    C    0.12610   0.18050   0.52770   1.000
    C250    C    0.62390   0.93050   0.77770   1.000
    C251    C    0.37610   0.06950   0.77770   1.000
    C252    C    0.87390   0.31950   0.02770   1.000
    C253    C    0.62610   0.18050   0.02770   1.000
    N254    N    0.90510   0.54930   0.79150   1.000
    N255    N    0.34490   0.79930   0.04150   1.000
    N256    N    0.15510   0.70070   0.04150   1.000
    N257    N    0.59490   0.45070   0.29150   1.000
    N258    N    0.40510   0.54930   0.29150   1.000
    N259    N    0.84490   0.79930   0.54150   1.000
    N260    N    0.65510   0.70070   0.54150   1.000
    N261    N    0.09490   0.95070   0.29150   1.000
    N262    N    0.90510   0.04930   0.29150   1.000
    N263    N    0.34490   0.29930   0.54150   1.000
    N264    N    0.15510   0.20070   0.54150   1.000
    N265    N    0.59490   0.95070   0.79150   1.000
    N266    N    0.40510   0.04930   0.79150   1.000
    N267    N    0.84490   0.29930   0.04150   1.000
    N268    N    0.65510   0.20070   0.04150   1.000
    C269    C    0.88220   0.61430   0.50180   1.000
    C270    C    0.36780   0.86430   0.75180   1.000
    C271    C    0.13220   0.63570   0.75180   1.000
    C272    C    0.61780   0.38570   0.00180   1.000
    C273    C    0.38220   0.61430   0.00180   1.000
    C274    C    0.86780   0.86430   0.25180   1.000
    C275    C    0.63220   0.63570   0.25180   1.000
    C276    C    0.11780   0.88570   0.00180   1.000
    C277    C    0.88220   0.11430   0.00180   1.000
    C278    C    0.36780   0.36430   0.25180   1.000
    C279    C    0.13220   0.13570   0.25180   1.000
    C280    C    0.61780   0.88570   0.50180   1.000
    C281    C    0.38220   0.11430   0.50180   1.000
    C282    C    0.86780   0.36430   0.75180   1.000
    C283    C    0.63220   0.13570   0.75180   1.000
    H284    H    0.86570   0.63130   0.52100   1.000
    H285    H    0.38430   0.88130   0.77100   1.000
    H286    H    0.11570   0.61870   0.77100   1.000
    H287    H    0.63430   0.36870   0.02100   1.000
    H288    H    0.36570   0.63130   0.02100   1.000
    H289    H    0.88430   0.88130   0.27100   1.000
    H290    H    0.61570   0.61870   0.27100   1.000
    H291    H    0.13430   0.86870   0.02100   1.000
    H292    H    0.86570   0.13130   0.02100   1.000
    H293    H    0.38430   0.38130   0.27100   1.000
    H294    H    0.11570   0.11870   0.27100   1.000
    H295    H    0.63430   0.86870   0.52100   1.000
    H296    H    0.36570   0.13130   0.52100   1.000
    N297    N    0.42820   0.07150   0.76420   1.000
    N298    N    0.82180   0.32150   0.01420   1.000
    N299    N    0.67820   0.17850   0.01420   1.000
    N300    N    0.90750   0.56300   0.44950   1.000
    N301    N    0.34250   0.81300   0.69950   1.000
    N302    N    0.15750   0.68700   0.69950   1.000
    N303    N    0.59250   0.43700   0.94950   1.000
    N304    N    0.40750   0.56300   0.94950   1.000
    N305    N    0.84250   0.81300   0.19950   1.000
    N306    N    0.65750   0.68700   0.19950   1.000
    N307    N    0.09250   0.93700   0.94950   1.000
    N308    N    0.90750   0.06300   0.94950   1.000
    N309    N    0.34250   0.31300   0.19950   1.000
    N310    N    0.15750   0.18700   0.19950   1.000
    N311    N    0.59250   0.93700   0.44950   1.000
    N312    N    0.40750   0.06300   0.44950   1.000
    N313    N    0.84250   0.31300   0.69950   1.000
    N314    N    0.65750   0.18700   0.69950   1.000
    N315    N    0.93260   0.58870   0.47150   1.000
    N316    N    0.31740   0.83870   0.72150   1.000
    N317    N    0.18260   0.66130   0.72150   1.000
    N318    N    0.56740   0.41130   0.97150   1.000
    N319    N    0.43260   0.58870   0.97150   1.000
    N320    N    0.81740   0.83870   0.22150   1.000
    N321    N    0.68260   0.66130   0.22150   1.000
    N322    N    0.06740   0.91130   0.97150   1.000
    N323    N    0.93260   0.08870   0.97150   1.000
    N324    N    0.31740   0.33870   0.22150   1.000
    N325    N    0.18260   0.16130   0.22150   1.000
    N326    N    0.56740   0.91130   0.47150   1.000
    N327    N    0.43260   0.08870   0.47150   1.000
    N328    N    0.81740   0.33870   0.72150   1.000
    N329    N    0.68260   0.16130   0.72150   1.000
    C330    C    0.00390   0.75370   0.38030   1.000
    C331    C    0.24610   0.00370   0.63030   1.000
    C332    C    0.25390   0.49630   0.63030   1.000
    C333    C    0.49610   0.24630   0.88030   1.000
    C334    C    0.50390   0.75370   0.88030   1.000
    C335    C    0.74610   0.00370   0.13030   1.000
    C336    C    0.75390   0.49630   0.13030   1.000
    C337    C    0.99610   0.74630   0.88030   1.000
    C338    C    0.00390   0.25370   0.88030   1.000
    C339    C    0.24610   0.50370   0.13030   1.000
    C340    C    0.25390   0.99630   0.13030   1.000
    C341    C    0.49610   0.74630   0.38030   1.000
    C342    C    0.50390   0.25370   0.38030   1.000
    C343    C    0.74610   0.50370   0.63030   1.000
    C344    C    0.75390   0.99630   0.63030   1.000
    H345    H    0.01010   0.71850   0.38150   1.000
    H346    H    0.23990   0.96850   0.63150   1.000
    H347    H    0.26010   0.53150   0.63150   1.000
    H348    H    0.48990   0.28150   0.88150   1.000
    H349    H    0.51010   0.71850   0.88150   1.000
    H350    H    0.73990   0.96850   0.13150   1.000
    H351    H    0.76010   0.53150   0.13150   1.000
    H352    H    0.98990   0.78150   0.88150   1.000
    H353    H    0.01010   0.21850   0.88150   1.000
    H354    H    0.23990   0.46850   0.13150   1.000
    H355    H    0.26010   0.03150   0.13150   1.000
    H356    H    0.48990   0.78150   0.38150   1.000
    H357    H    0.51010   0.21850   0.38150   1.000
    H358    H    0.73990   0.46850   0.63150   1.000
    H359    H    0.76010   0.03150   0.63150   1.000
    C360    C    0.88060   0.60450   0.74070   1.000
    C361    C    0.36940   0.85450   0.99070   1.000
    C362    C    0.13060   0.64550   0.99070   1.000
    C363    C    0.61940   0.39550   0.24070   1.000
    C364    C    0.38060   0.60450   0.24070   1.000
    C365    C    0.86940   0.85450   0.49070   1.000
    C366    C    0.63060   0.64550   0.49070   1.000
    C367    C    0.11940   0.89550   0.24070   1.000
    C368    C    0.88060   0.10450   0.24070   1.000
    C369    C    0.36940   0.35450   0.49070   1.000
    C370    C    0.13060   0.14550   0.49070   1.000
    C371    C    0.61940   0.89550   0.74070   1.000
    C372    C    0.38060   0.10450   0.74070   1.000
    C373    C    0.86940   0.35450   0.99070   1.000
    C374    C    0.63060   0.14550   0.99070   1.000
    H375    H    0.86370   0.62400   0.72440   1.000
    H376    H    0.38630   0.87400   0.97440   1.000
    H377    H    0.11370   0.62600   0.97440   1.000
    H378    H    0.63630   0.37600   0.22440   1.000
    H379    H    0.36370   0.62400   0.22440   1.000
    H380    H    0.88630   0.87400   0.47440   1.000
    H381    H    0.61370   0.62600   0.47440   1.000
    H382    H    0.13630   0.87600   0.22440   1.000
    H383    H    0.86370   0.12400   0.22440   1.000
    H384    H    0.38630   0.37400   0.47440   1.000
    H385    H    0.11370   0.12600   0.47440   1.000
    H386    H    0.63630   0.87600   0.72440   1.000
    H387    H    0.36370   0.12400   0.72440   1.000
    H388    H    0.88630   0.37400   0.97440   1.000
    H389    H    0.61370   0.12600   0.97440   1.000
    N390    N    0.99040   0.83450   0.40180   1.000
    N391    N    0.25960   0.08450   0.65180   1.000
    N392    N    0.24040   0.41550   0.65180   1.000
    N393    N    0.50960   0.16550   0.90180   1.000
    N394    N    0.49040   0.83450   0.90180   1.000
    N395    N    0.75960   0.08450   0.15180   1.000
    N396    N    0.74040   0.41550   0.15180   1.000
    N397    N    0.00960   0.66550   0.90180   1.000
    N398    N    0.99040   0.33450   0.90180   1.000
    N399    N    0.25960   0.58450   0.15180   1.000
    N400    N    0.24040   0.91550   0.15180   1.000
    N401    N    0.50960   0.66550   0.40180   1.000
    N402    N    0.49040   0.33450   0.40180   1.000
    N403    N    0.75960   0.58450   0.65180   1.000
    N404    N    0.74040   0.91550   0.65180   1.000
    N405    N    0.99080   0.83140   0.35400   1.000
    N406    N    0.25920   0.08140   0.60400   1.000
    N407    N    0.24080   0.41860   0.60400   1.000
    N408    N    0.50920   0.16860   0.85400   1.000
    N409    N    0.49080   0.83140   0.85400   1.000
    N410    N    0.75920   0.08140   0.10400   1.000
    N411    N    0.74080   0.41860   0.10400   1.000
    N412    N    0.00920   0.66860   0.85400   1.000
    N413    N    0.99080   0.33140   0.85400   1.000
    N414    N    0.25920   0.58140   0.10400   1.000
    N415    N    0.24080   0.91860   0.10400   1.000
    N416    N    0.50920   0.66860   0.35400   1.000
    N417    N    0.49080   0.33140   0.35400   1.000
    N418    N    0.75920   0.58140   0.60400   1.000
    N419    N    0.74080   0.91860   0.60400   1.000
    C420    C    0.83290   0.87090   0.25350   1.000
    N421    N    0.06850   0.92460   0.78400   1.000
    N422    N    0.18150   0.17460   0.03400   1.000
    N423    N    0.31850   0.32540   0.03400   1.000
    N424    N    0.43150   0.07540   0.28400   1.000
    N425    N    0.56850   0.92460   0.28400   1.000
    N426    N    0.68150   0.17460   0.53400   1.000
    N427    N    0.81850   0.32540   0.53400   1.000
    N428    N    0.93150   0.57540   0.28400   1.000
    N429    N    0.06850   0.42460   0.28400   1.000
    N430    N    0.18150   0.67460   0.53400   1.000
    N431    N    0.31850   0.82540   0.53400   1.000
    N432    N    0.43150   0.57540   0.78400   1.000
    N433    N    0.56850   0.42460   0.78400   1.000
    N434    N    0.68150   0.67460   0.03400   1.000
    N435    N    0.81850   0.82540   0.03400   1.000
    C436    C    0.91710   0.62090   0.50350   1.000
    C437    C    0.33290   0.87090   0.75350   1.000
    C438    C    0.16710   0.62910   0.75350   1.000
    C439    C    0.58290   0.37910   0.00350   1.000
    C440    C    0.41710   0.62090   0.00350   1.000
    C441    C    0.66710   0.62910   0.25350   1.000
    C442    C    0.08290   0.87910   0.00350   1.000
    C443    C    0.91710   0.12090   0.00350   1.000
    C444    C    0.33290   0.37090   0.25350   1.000
    C445    C    0.16710   0.12910   0.25350   1.000
    C446    C    0.58290   0.87910   0.50350   1.000
    C447    C    0.41710   0.12090   0.50350   1.000
    C448    C    0.83290   0.37090   0.75350   1.000
    C449    C    0.66710   0.12910   0.75350   1.000
    C450    C    0.99890   0.78280   0.34060   1.000
    C451    C    0.25110   0.03280   0.59060   1.000
    C452    C    0.24890   0.46720   0.59060   1.000
    C453    C    0.50110   0.21720   0.84060   1.000
    C454    C    0.49890   0.78280   0.84060   1.000
    C455    C    0.75110   0.03280   0.09060   1.000
    C456    C    0.74890   0.46720   0.09060   1.000
    C457    C    0.00110   0.71720   0.84060   1.000
    C458    C    0.99890   0.28280   0.84060   1.000
    C459    C    0.25110   0.53280   0.09060   1.000
    C460    C    0.24890   0.96720   0.09060   1.000
    C461    C    0.50110   0.71720   0.34060   1.000
    C462    C    0.49890   0.28280   0.34060   1.000
    C463    C    0.75110   0.53280   0.59060   1.000
    C464    C    0.74890   0.96720   0.59060   1.000
    C465    C    0.12230   0.93980   0.78320   1.000
    C466    C    0.12770   0.18980   0.03320   1.000
    C467    C    0.37230   0.31020   0.03320   1.000
    C468    C    0.37770   0.06020   0.28320   1.000
    C469    C    0.62230   0.93980   0.28320   1.000
    C470    C    0.62770   0.18980   0.53320   1.000
    C471    C    0.87230   0.31020   0.53320   1.000
    C472    C    0.87770   0.56020   0.28320   1.000
    C473    C    0.12230   0.43980   0.28320   1.000
    C474    C    0.12770   0.68980   0.53320   1.000
    C475    C    0.37230   0.81020   0.53320   1.000
    C476    C    0.37770   0.56020   0.78320   1.000
    C477    C    0.62230   0.43980   0.78320   1.000
    C478    C    0.62770   0.68980   0.03320   1.000
    C479    C    0.87230   0.81020   0.03320   1.000
loop_
    _geom_bond_atom_site_label_1
    _geom_bond_atom_site_label_2
    _geom_bond_distance
    _geom_bond_site_symmetry_2
    _ccdc_geom_bond_type
    C77    N422      1.32159      .   S
    C77    C31       1.38458  1_554   S
    C78    N423      1.32159      .   S
    C78    C91       1.38458  1_554   S
    C89    N434      1.32159      .   S
    C89    C102      1.38458  1_554   S
    C90    N435      1.32159      .   S
    C90    C103      1.38458  1_554   S
    N152   C167      1.42040      .   S
    N152   N137      1.42025  1_554   S
    N153   C168      1.42040      .   S
    N153   N138      1.42025  1_554   S
    N156   C171      1.42040      .   S
    N156   N141      1.42025  1_554   S
    N157   C172      1.42040      .   S
    N157   N142      1.42025  1_554   S
    C276   C442      1.38039      .   S
    C276   H291      0.94928      .   S
    C276   C53       1.37131  1_554   S
    C273   C440      1.38039      .   S
    C273   H288      0.94928      .   S
    C273   C50       1.37131  1_554   S
    C272   C439      1.38039      .   S
    C272   H287      0.94928      .   S
    C272   C49       1.37131  1_554   S
    C277   C443      1.38039      .   S
    C277   H292      0.94928      .   S
    C277   C54       1.37131  1_554   S
    C439   N318      1.36668  1_554   S
    C440   N319      1.36668  1_554   S
    C442   N322      1.36668  1_554   S
    C443   N323      1.36668  1_554   S
    N35    N255      1.31686      .   S
    N35    C62       1.32464  1_554   S
    N36    N256      1.31686      .   S
    N36    C63       1.32464  1_554   S
    N298   N267      1.31686      .   S
    N298   C74       1.32464  1_554   S
    N299   N268      1.31686      .   S
    N299   C75       1.32464  1_554   S
    C240   N255      1.31076      .   S
    C240   C361      1.38746  1_554   S
    C241   N256      1.31076      .   S
    C241   C362      1.38746  1_554   S
    C252   N267      1.31076      .   S
    C252   C373      1.38746  1_554   S
    C253   N268      1.31076      .   S
    C253   C374      1.38746  1_554   S
    C182   C167      1.42021      .   S
    C182   H197      0.95166      .   S
    C182   C212      1.41901  1_554   S
    C183   C168      1.42021      .   S
    C183   H198      0.95166      .   S
    C183   C213      1.41901  1_554   S
    C186   C171      1.42021      .   S
    C186   H201      0.95166      .   S
    C186   C216      1.41901  1_554   S
    C187   C172      1.42021      .   S
    C187   H202      0.95166      .   S
    C187   C217      1.41901  1_554   S
    C479   N238      1.33941      .   S
    C479   C103      1.35892  1_554   S
    C478   N237      1.33941      .   S
    C478   C102      1.35892  1_554   S
    C467   N226      1.33941      .   S
    C467   C91       1.35892  1_554   S
    C466   N225      1.33941      .   S
    C466   C31       1.35892  1_554   S
    N435   N238      1.32020      .   S
    N434   N237      1.32020      .   S
    N423   N226      1.32020      .   S
    N422   N225      1.32020      .   S
    C459   N414      1.35627      .   S
    C459   C339      1.35551      .   S
    C455   N410      1.35627      .   S
    C455   C335      1.35551      .   S
    C456   N411      1.35627      .   S
    C456   C336      1.35551      .   S
    C460   N415      1.35627      .   S
    C460   C340      1.35551      .   S
    N415   N400      1.33553      .   S
    N414   N399      1.33553      .   S
    N410   N395      1.33553      .   S
    N411   N396      1.33553      .   S
    C335   H350      0.94816  1_545   S
    C335   C124      1.39295      .   S
    C340   H355      0.94816  1_565   S
    C340   C129      1.39295      .   S
    C339   H354      0.94816      .   S
    C339   C128      1.39295      .   S
    C336   H351      0.94816      .   S
    C336   C125      1.39295      .   S
    N395   C124      1.37384      .   S
    N399   C128      1.37384      .   S
    N396   C125      1.37384      .   S
    N400   C129      1.37384      .   S
    N310   C56       1.37856      .   S
    N310   N325      1.33892      .   S
    N309   C55       1.37856      .   S
    N309   N324      1.33892      .   S
    N305   C51       1.37856      .   S
    N305   N320      1.33892      .   S
    N306   C52       1.37856      .   S
    N306   N321      1.33892      .   S
    C51    C274      1.37131      .   S
    C56    C279      1.37131      .   S
    C52    C275      1.37131      .   S
    C55    C278      1.37131      .   S
    N325   C445      1.36668      .   S
    N324   C444      1.36668      .   S
    N321   C441      1.36668      .   S
    N320   C420      1.36668      .   S
    N139   C214      1.41969      .   S
    N139   N154      1.42025      .   S
    N140   C215      1.41969      .   S
    N140   N155      1.42025      .   S
    N143   C218      1.41969      .   S
    N143   N158      1.42025      .   S
    N144   C219      1.41969      .   S
    N144   N159      1.42025      .   S
    H383   C368      0.95047      .   S
    H379   C364      0.95047      .   S
    H378   C363      0.95047      .   S
    H382   C367      0.95047      .   S
    H107   C92       0.95110      .   S
    H108   C93       0.95110      .   S
    H112   C97       0.95110      .   S
    H111   C96       0.95110      .   S
    C69    C368      1.34858      .   S
    C69    N42       1.32464      .   S
    C68    C367      1.34858      .   S
    C68    N41       1.32464      .   S
    C65    C364      1.34858      .   S
    C65    N38       1.32464      .   S
    C64    C363      1.34858      .   S
    C64    N37       1.32464      .   S
    C214   C184      1.41901      .   S
    C219   C189      1.41901      .   S
    C218   C188      1.41901      .   S
    C215   C185      1.41901      .   S
    C367   C246      1.38746      .   S
    C368   C247      1.38746      .   S
    C364   C243      1.38746      .   S
    C363   C242      1.38746      .   S
    C92    C79       1.38458      .   S
    C92    C468      1.35892      .   S
    C93    C80       1.38458      .   S
    C93    C469      1.35892      .   S
    C96    C83       1.38458      .   S
    C96    C472      1.35892      .   S
    C97    C84       1.38458      .   S
    C97    C473      1.35892      .   S
    C83    N428      1.32159      .   S
    C79    N424      1.32159      .   S
    C80    N425      1.32159      .   S
    C84    N429      1.32159      .   S
    N154   C169      1.42040      .   S
    N155   C170      1.42040      .   S
    N158   C173      1.42040      .   S
    N159   C174      1.42040      .   S
    C274   C420      1.38039      .   S
    C274   H289      0.94928      .   S
    C275   C441      1.38039      .   S
    C275   H290      0.94928      .   S
    C278   C444      1.38039      .   S
    C278   H293      0.94928      .   S
    C279   C445      1.38039      .   S
    C279   H294      0.94928      .   S
    N37    N257      1.31686      .   S
    N42    N262      1.31686      .   S
    N41    N261      1.31686      .   S
    N38    N258      1.31686      .   S
    C242   N257      1.31076      .   S
    C243   N258      1.31076      .   S
    C247   N262      1.31076      .   S
    C246   N261      1.31076      .   S
    C189   C174      1.42021      .   S
    C189   H204      0.95166      .   S
    C188   C173      1.42021      .   S
    C188   H203      0.95166      .   S
    C185   C170      1.42021      .   S
    C185   H200      0.95166      .   S
    C184   C169      1.42021      .   S
    C184   H199      0.95166      .   S
    C473   N232      1.33941      .   S
    C472   N231      1.33941      .   S
    C469   N228      1.33941      .   S
    C468   N227      1.33941      .   S
    N428   N231      1.32020      .   S
    N429   N232      1.32020      .   S
    N424   N227      1.32020      .   S
    N425   N228      1.32020      .   S
    C28    N25       1.35627      .   S
    C28    C20       1.35551  1_455   S
    C450   N405      1.35627      .   S
    C450   C330      1.35551  1_655   S
    C462   N417      1.35627      .   S
    C462   C342      1.35551      .   S
    C461   N416      1.35627      .   S
    C461   C341      1.35551      .   S
    N25    N24       1.33553      .   S
    N405   N390      1.33553      .   S
    N416   N401      1.33553      .   S
    N417   N402      1.33553      .   S
    C20    H21       0.94816      .   S
    C20    C5        1.39295  1_655   S
    C330   H345      0.94816      .   S
    C330   C119      1.39295  1_455   S
    C342   H357      0.94816      .   S
    C342   C131      1.39295      .   S
    C341   H356      0.94816      .   S
    C341   C130      1.39295      .   S
    N24    C5        1.37384      .   S
    N402   C131      1.37384      .   S
    N390   C119      1.37384      .   S
    N401   C130      1.37384      .   S
    N18    C0        1.37856      .   S
    N18    N19       1.33892      .   S
    N300   C46       1.37856      .   S
    N300   N315      1.33892      .   S
    N312   C58       1.37856      .   S
    N312   N327      1.33892      .   S
    N311   C57       1.37856      .   S
    N311   N326      1.33892      .   S
    C0     C15       1.37131      .   S
    C58    C281      1.37131      .   S
    C57    C280      1.37131      .   S
    C46    C269      1.37131      .   S
    N19    C27       1.36668      .   S
    N315   C436      1.36668      .   S
    N327   C447      1.36668      .   S
    N326   C446      1.36668      .   S
    N6     C11       1.41969      .   S
    N6     N7        1.42025      .   S
    N146   C221      1.41969      .   S
    N146   N161      1.42025      .   S
    N145   C220      1.41969      .   S
    N145   N160      1.42025      .   S
    N134   C209      1.41969      .   S
    N134   N149      1.42025      .   S
    H381   C366      0.95047      .   S
    H380   C365      0.95047      .   S
    H384   C369      0.95047      .   S
    H385   C370      0.95047      .   S
    H114   C99       0.95110      .   S
    H113   C98       0.95110      .   S
    H110   C95       0.95110      .   S
    H109   C94       0.95110      .   S
    C71    C370      1.34858      .   S
    C71    N44       1.32464      .   S
    C70    C369      1.34858      .   S
    C70    N43       1.32464      .   S
    C67    C366      1.34858      .   S
    C67    N40       1.32464      .   S
    C66    C365      1.34858      .   S
    C66    N39       1.32464      .   S
    C11    C9        1.41901      .   S
    C209   C179      1.41901      .   S
    C221   C191      1.41901      .   S
    C220   C190      1.41901      .   S
    C365   C244      1.38746      .   S
    C370   C249      1.38746      .   S
    C369   C248      1.38746      .   S
    C366   C245      1.38746      .   S
    C95    C82       1.38458      .   S
    C95    C471      1.35892      .   S
    C99    C86       1.38458      .   S
    C99    C475      1.35892      .   S
    C98    C85       1.38458      .   S
    C98    C474      1.35892      .   S
    C94    C81       1.38458      .   S
    C94    C470      1.35892      .   S
    C81    N426      1.32159      .   S
    C86    N431      1.32159      .   S
    C85    N430      1.32159      .   S
    C82    N427      1.32159      .   S
    N7     C8        1.42040      .   S
    N161   C176      1.42040      .   S
    N160   C175      1.42040      .   S
    N149   C164      1.42040      .   S
    C15    C27       1.38039      .   S
    C15    H16       0.94928      .   S
    C269   C436      1.38039      .   S
    C269   H284      0.94928      .   S
    C281   C447      1.38039      .   S
    C281   H296      0.94928      .   S
    C280   C446      1.38039      .   S
    C280   H295      0.94928      .   S
    N39    N259      1.31686      .   S
    N40    N260      1.31686      .   S
    N43    N263      1.31686      .   S
    N44    N264      1.31686      .   S
    C248   N263      1.31076      .   S
    C249   N264      1.31076      .   S
    C245   N260      1.31076      .   S
    C244   N259      1.31076      .   S
    C9     C8        1.42021      .   S
    C9     H10       0.95166      .   S
    C191   C176      1.42021      .   S
    C191   H206      0.95166      .   S
    C190   C175      1.42021      .   S
    C190   H205      0.95166      .   S
    C179   C164      1.42021      .   S
    C179   H194      0.95166      .   S
    C475   N234      1.33941      .   S
    C470   N229      1.33941      .   S
    C474   N233      1.33941      .   S
    C471   N230      1.33941      .   S
    N430   N233      1.32020      .   S
    N431   N234      1.32020      .   S
    N427   N230      1.32020      .   S
    N426   N229      1.32020      .   S
    C464   N419      1.35627      .   S
    C464   C344      1.35551      .   S
    C452   N407      1.35627      .   S
    C452   C332      1.35551      .   S
    C451   N406      1.35627      .   S
    C451   C331      1.35551      .   S
    C463   N418      1.35627      .   S
    C463   C343      1.35551      .   S
    N407   N392      1.33553      .   S
    N406   N391      1.33553      .   S
    N418   N403      1.33553      .   S
    N419   N404      1.33553      .   S
    C344   H359      0.94816  1_565   S
    C344   C133      1.39295      .   S
    C343   H358      0.94816      .   S
    C343   C132      1.39295      .   S
    C331   H346      0.94816  1_545   S
    C331   C120      1.39295      .   S
    C332   H347      0.94816      .   S
    C332   C121      1.39295      .   S
    N403   C132      1.37384      .   S
    N391   C120      1.37384      .   S
    N392   C121      1.37384      .   S
    N404   C133      1.37384      .   S
    N314   C60       1.37856      .   S
    N314   N329      1.33892      .   S
    N313   C59       1.37856      .   S
    N313   N328      1.33892      .   S
    N302   C48       1.37856      .   S
    N302   N317      1.33892      .   S
    N301   C47       1.37856      .   S
    N301   N316      1.33892      .   S
    C60    C283      1.37131      .   S
    C59    C282      1.37131      .   S
    C48    C271      1.37131      .   S
    C47    C270      1.37131      .   S
    N329   C449      1.36668      .   S
    N328   C448      1.36668      .   S
    N317   C438      1.36668      .   S
    N316   C437      1.36668      .   S
    N148   C223      1.41969      .   S
    N148   N163      1.42025      .   S
    N135   C210      1.41969      .   S
    N135   N150      1.42025      .   S
    N136   C211      1.41969      .   S
    N136   N151      1.42025      .   S
    N147   C222      1.41969      .   S
    N147   N162      1.42025      .   S
    H23    C22       0.95047      .   S
    H387   C372      0.95047      .   S
    H386   C371      0.95047      .   S
    H375   C360      0.95047      .   S
    H104   C30       0.95110      .   S
    H115   C100      0.95110      .   S
    H4     C3        0.95110      .   S
    H116   C101      0.95110      .   S
    C1     C22       1.34858      .   S
    C1     N17       1.32464      .   S
    C61    C360      1.34858      .   S
    C61    N34       1.32464      .   S
    C72    C371      1.34858      .   S
    C72    N45       1.32464      .   S
    C73    C372      1.34858      .   S
    C73    N297      1.32464      .   S
    C223   C193      1.41901      .   S
    C222   C192      1.41901      .   S
    C211   C181      1.41901      .   S
    C210   C180      1.41901      .   S
    C22    C13       1.38746      .   S
    C360   C239      1.38746      .   S
    C372   C251      1.38746      .   S
    C371   C250      1.38746      .   S
    C3     C2        1.38458      .   S
    C3     C29       1.35892      .   S
    C30    C76       1.38458      .   S
    C30    C465      1.35892      .   S
    C101   C88       1.38458      .   S
    C101   C477      1.35892      .   S
    C100   C87       1.38458      .   S
    C100   C476      1.35892      .   S
    C88    N433      1.32159      .   S
    C76    N421      1.32159      .   S
    C87    N432      1.32159      .   S
    C2     N26       1.32159      .   S
    N163   C178      1.42040      .   S
    N162   C177      1.42040      .   S
    N151   C166      1.42040      .   S
    N150   C165      1.42040      .   S
    C283   C449      1.38039      .   S
    C283   H33       0.94928      .   S
    C282   C448      1.38039      .   S
    C282   H32       0.94928      .   S
    C271   C438      1.38039      .   S
    C271   H286      0.94928      .   S
    C270   C437      1.38039      .   S
    C270   H285      0.94928      .   S
    N17    N14       1.31686      .   S
    N297   N266      1.31686      .   S
    N34    N254      1.31686      .   S
    N45    N265      1.31686      .   S
    C13    N14       1.31076      .   S
    C250   N265      1.31076      .   S
    C251   N266      1.31076      .   S
    C239   N254      1.31076      .   S
    C181   C166      1.42021      .   S
    C181   H196      0.95166      .   S
    C193   C178      1.42021      .   S
    C193   H208      0.95166      .   S
    C180   C165      1.42021      .   S
    C180   H195      0.95166      .   S
    C192   C177      1.42021      .   S
    C192   H207      0.95166      .   S
    C29    N12       1.33941      .   S
    C465   N224      1.33941      .   S
    C476   N235      1.33941      .   S
    C477   N236      1.33941      .   S
    N26    N12       1.32020      .   S
    N421   N224      1.32020      .   S
    N432   N235      1.32020      .   S
    N433   N236      1.32020      .   S
    C457   N412      1.35627      .   S
    C457   C337      1.35551  1_455   S
    C454   N409      1.35627      .   S
    C454   C334      1.35551      .   S
    C458   N413      1.35627      .   S
    C458   C338      1.35551  1_655   S
    C453   N408      1.35627      .   S
    C453   C333      1.35551      .   S
    N408   N393      1.33553      .   S
    N409   N394      1.33553      .   S
    N412   N397      1.33553      .   S
    N413   N398      1.33553      .   S
    C333   H348      0.94816      .   S
    C333   C122      1.39295      .   S
    C334   H349      0.94816      .   S
    C334   C123      1.39295      .   S
    C337   H352      0.94816      .   S
    C337   C126      1.39295  1_655   S
    C338   H353      0.94816      .   S
    C338   C127      1.39295  1_455   S
    N393   C122      1.37384      .   S
    N394   C123      1.37384      .   S
    N397   C126      1.37384      .   S
    N398   C127      1.37384      .   S
    N303   C49       1.37856      .   S
    N303   N318      1.33892      .   S
    N304   C50       1.37856      .   S
    N304   N319      1.33892      .   S
    N307   C53       1.37856      .   S
    N307   N322      1.33892      .   S
    N308   C54       1.37856      .   S
    N308   N323      1.33892      .   S
    N141   C216      1.41969      .   S
    N142   C217      1.41969      .   S
    N138   C213      1.41969      .   S
    N137   C212      1.41969      .   S
    H377   C362      0.95047      .   S
    H388   C373      0.95047      .   S
    H376   C361      0.95047      .   S
    H389   C374      0.95047      .   S
    H118   C103      0.95110      .   S
    H117   C102      0.95110      .   S
    H106   C91       0.95110      .   S
    H105   C31       0.95110      .   S
    C75    C374      1.34858      .   S
    C74    C373      1.34858      .   S
    C63    C362      1.34858      .   S
    C62    C361      1.34858      .   S
