# CIF file generated by openbabel 2.4.90, see http://openbabel.sf.net
data_I
_chemical_name_common ''
_cell_length_a 39.222
_cell_length_b 26.018
_cell_length_c 27.887
_cell_angle_alpha 90
_cell_angle_beta 90
_cell_angle_gamma 90
_space_group_name_H-M_alt 'P 1'
_space_group_name_Hall 'P 1'
loop_
    _symmetry_equiv_pos_as_xyz
    x,y,z
loop_
    _atom_site_label
    _atom_site_type_symbol
    _atom_site_fract_x
    _atom_site_fract_y
    _atom_site_fract_z
    _atom_site_occupancy
    Zr0     Zr   0.51253   0.19131   0.20101   1.000
    Zr1     Zr   0.23747   0.44131   0.95101   1.000
    Zr2     Zr   0.98690   0.30022   0.55889   1.000
    Zr3     Zr   0.93974   0.21879   0.63324   1.000
    Zr4     Zr   0.98664   0.31888   0.68418   1.000
    Zr5     Zr   0.01232   0.17290   0.57488   1.000
    Zr6     Zr   0.05965   0.27276   0.62667   1.000
    O7      O    0.96218   0.29020   0.62420   1.000
    O8      O    0.98509   0.17840   0.63840   1.000
    O9      O    0.15257   0.48090   0.83440   1.000
    O10     O    0.01749   0.33460   0.61870   1.000
    H11     H    0.02540   0.37080   0.61410   1.000
    O12     O    0.84829   0.00150   0.83270   1.000
    O13     O    0.81786   0.05430   0.78430   1.000
    O14     O    0.81637   0.05290   0.48230   1.000
    O15     O    0.15218   0.48590   0.42510   1.000
    O16     O    0.00919   0.18980   0.26150   1.000
    O17     O    0.07849   0.33900   0.66810   1.000
    O18     O    0.84718   0.00610   0.42950   1.000
    Zr19    Zr   0.01253   0.19131   0.70101   1.000
    O20     O    0.18238   0.41970   0.45740   1.000
    O21     O    0.92138   0.15060   0.59370   1.000
    O22     O    0.97310   0.38070   0.55130   1.000
    O23     O    0.03232   0.36580   0.71000   1.000
    O24     O    0.96593   0.24110   0.70180   1.000
    H25     H    0.95170   0.23900   0.73140   1.000
    O26     O    0.00865   0.18130   0.49660   1.000
    O27     O    0.03140   0.09590   0.58160   1.000
    O28     O    0.18320   0.42280   0.79280   1.000
    O29     O    0.99170   0.27270   0.27480   1.000
    O30     O    0.92244   0.16310   0.68750   1.000
    O31     O    0.97340   0.39880   0.67280   1.000
    O32     O    0.07750   0.32590   0.57010   1.000
    O33     O    0.96944   0.14400   0.73090   1.000
    C34     C    0.06330   0.36450   0.70090   1.000
    O35     O    0.03126   0.11280   0.70830   1.000
    O36     O    0.99240   0.26680   0.48470   1.000
    C37     C    0.12380   0.42160   0.46680   1.000
    C38     C    0.15610   0.44590   0.80290   1.000
    C39     C    0.08540   0.39550   0.73350   1.000
    C40     C    0.91780   0.10480   0.75050   1.000
    O41     O    0.03102   0.33990   0.52340   1.000
    C42     C    0.84530   0.03600   0.80120   1.000
    C43     C    0.93690   0.12120   0.56510   1.000
    C44     C    0.93830   0.14080   0.72040   1.000
    C45     C    0.15530   0.44460   0.44850   1.000
    C46     C    0.84360   0.03460   0.46570   1.000
    C47     C    0.88300   0.09610   0.74860   1.000
    H48     H    0.86670   0.11160   0.72790   1.000
    C49     C    0.00190   0.21360   0.41900   1.000
    N50     N    0.90586   0.03190   0.47350   1.000
    N51     N    0.93159   0.05560   0.50170   1.000
    C52     C    0.91536   0.08830   0.53550   1.000
    C53     C    0.87961   0.08480   0.52810   1.000
    H54     H    0.86260   0.10270   0.54580   1.000
    C55     C    0.87374   0.05000   0.48980   1.000
    N56     N    0.90720   0.04810   0.80460   1.000
    C57     C    0.00120   0.22120   0.47170   1.000
    C58     C    0.12390   0.43050   0.77770   1.000
    N59     N    0.09490   0.45070   0.79150   1.000
    C60     C    0.11780   0.38570   0.50180   1.000
    H61     H    0.13430   0.36870   0.52100   1.000
    N62     N    0.07180   0.42850   0.76420   1.000
    N63     N    0.09250   0.43700   0.44950   1.000
    O64     O    0.02540   0.26480   0.68120   1.000
    O65     O    0.02508   0.25010   0.57660   1.000
    O66     O    0.04737   0.18550   0.63710   1.000
    H67     H    0.06730   0.16170   0.64000   1.000
    O68     O    0.96573   0.22070   0.56150   1.000
    H69     H    0.95140   0.21030   0.53340   1.000
    C70     C    0.06200   0.34550   0.53430   1.000
    O71     O    0.96844   0.11880   0.55800   1.000
    N72     N    0.06740   0.41130   0.47150   1.000
    C73     C    0.99610   0.24630   0.38030   1.000
    H74     H    0.98990   0.28150   0.38150   1.000
    C75     C    0.11940   0.39550   0.74070   1.000
    H76     H    0.13630   0.37600   0.72440   1.000
    N77     N    0.00960   0.16550   0.40180   1.000
    N78     N    0.00920   0.16860   0.35400   1.000
    N79     N    0.93150   0.07540   0.78400   1.000
    C80     C    0.08290   0.37910   0.50350   1.000
    C81     C    0.00110   0.21720   0.34060   1.000
    C82     C    0.99990   0.22740   0.28830   1.000
    C83     C    0.87770   0.06020   0.78320   1.000
    O84     O    0.08440   0.09640   0.61410   1.000
    C85     C    0.06060   0.07680   0.58750   1.000
    O86     O    0.08330   0.10610   0.67770   1.000
    C87     C    0.06130   0.09450   0.70990   1.000
    O88     O    0.02020   0.43920   0.62740   1.000
    N89     N    0.03650   0.02740   0.69200   1.000
    Zr90    Zr   0.76232   0.57710   0.82488   1.000
    Zr91    Zr   0.73768   0.92290   0.82488   1.000
    C92     C    0.94940   0.41070   0.55840   1.000
    C93     C    0.01950   0.07210   0.68880   1.000
    C94     C    0.07190   0.02240   0.70900   1.000
    C95     C    0.99190   0.43490   0.65410   1.000
    O96     O    0.93460   0.44580   0.53580   1.000
    Zr97    Zr   0.98747   0.80869   0.70101   1.000
    Zr98    Zr   0.26253   0.05869   0.95101   1.000
    O99     O    0.09743   0.23090   0.58440   1.000
    O100    O    0.65257   0.98090   0.83440   1.000
    O101    O    0.34743   0.01910   0.83440   1.000
    O102    O    0.90257   0.26910   0.08440   1.000
    Zr103   Zr   0.48747   0.80869   0.20101   1.000
    Zr104   Zr   0.76253   0.05869   0.45101   1.000
    Zr105   Zr   0.73747   0.44131   0.45101   1.000
    Zr106   Zr   0.01253   0.69131   0.20101   1.000
    Zr107   Zr   0.98747   0.30869   0.20101   1.000
    Zr108   Zr   0.26253   0.55869   0.45101   1.000
    Zr109   Zr   0.23747   0.94131   0.45101   1.000
    Zr110   Zr   0.51253   0.69131   0.70101   1.000
    Zr111   Zr   0.48747   0.30869   0.70101   1.000
    Zr112   Zr   0.76253   0.55869   0.95101   1.000
    Zr113   Zr   0.73747   0.94131   0.95101   1.000
    Zr114   Zr   0.01310   0.69978   0.55889   1.000
    Zr115   Zr   0.23690   0.94978   0.80889   1.000
    Zr116   Zr   0.26310   0.55022   0.80889   1.000
    Zr117   Zr   0.48690   0.30022   0.05889   1.000
    Zr118   Zr   0.51310   0.69978   0.05889   1.000
    Zr119   Zr   0.73690   0.94978   0.30889   1.000
    Zr120   Zr   0.76310   0.55022   0.30889   1.000
    Zr121   Zr   0.98690   0.80022   0.05889   1.000
    Zr122   Zr   0.01310   0.19978   0.05889   1.000
    Zr123   Zr   0.23690   0.44978   0.30889   1.000
    Zr124   Zr   0.26310   0.05022   0.30889   1.000
    Zr125   Zr   0.48690   0.80022   0.55889   1.000
    Zr126   Zr   0.51310   0.19978   0.55889   1.000
    Zr127   Zr   0.73690   0.44978   0.80889   1.000
    Zr128   Zr   0.76310   0.05022   0.80889   1.000
    Zr129   Zr   0.06026   0.78121   0.63324   1.000
    Zr130   Zr   0.18974   0.03121   0.88324   1.000
    Zr131   Zr   0.31026   0.46879   0.88324   1.000
    Zr132   Zr   0.43974   0.21879   0.13324   1.000
    Zr133   Zr   0.56026   0.78121   0.13324   1.000
    Zr134   Zr   0.68974   0.03121   0.38324   1.000
    Zr135   Zr   0.81026   0.46879   0.38324   1.000
    Zr136   Zr   0.93974   0.71879   0.13324   1.000
    Zr137   Zr   0.06026   0.28121   0.13324   1.000
    Zr138   Zr   0.18974   0.53121   0.38324   1.000
    Zr139   Zr   0.31026   0.96879   0.38324   1.000
    Zr140   Zr   0.43974   0.71879   0.63324   1.000
    Zr141   Zr   0.56026   0.28121   0.63324   1.000
    Zr142   Zr   0.68974   0.53121   0.88324   1.000
    Zr143   Zr   0.81026   0.96879   0.88324   1.000
    Zr144   Zr   0.01336   0.68112   0.68418   1.000
    Zr145   Zr   0.23664   0.93112   0.93418   1.000
    Zr146   Zr   0.26336   0.56888   0.93418   1.000
    Zr147   Zr   0.48664   0.31888   0.18418   1.000
    Zr148   Zr   0.51336   0.68112   0.18418   1.000
    Zr149   Zr   0.73664   0.93112   0.43418   1.000
    Zr150   Zr   0.76336   0.56888   0.43418   1.000
    Zr151   Zr   0.98664   0.81888   0.18418   1.000
    Zr152   Zr   0.01336   0.18112   0.18418   1.000
    Zr153   Zr   0.23664   0.43112   0.43418   1.000
    Zr154   Zr   0.26336   0.06888   0.43418   1.000
    Zr155   Zr   0.48664   0.81888   0.68418   1.000
    Zr156   Zr   0.51336   0.18112   0.68418   1.000
    Zr157   Zr   0.73664   0.43112   0.93418   1.000
    Zr158   Zr   0.76336   0.06888   0.93418   1.000
    Zr159   Zr   0.98768   0.82710   0.57488   1.000
    Zr160   Zr   0.26232   0.07710   0.82488   1.000
    Zr161   Zr   0.23768   0.42290   0.82488   1.000
    Zr162   Zr   0.51232   0.17290   0.07488   1.000
    Zr163   Zr   0.48768   0.82710   0.07488   1.000
    Zr164   Zr   0.76232   0.07710   0.32488   1.000
    Zr165   Zr   0.73768   0.42290   0.32488   1.000
    Zr166   Zr   0.01232   0.67290   0.07488   1.000
    Zr167   Zr   0.98768   0.32710   0.07488   1.000
    Zr168   Zr   0.26232   0.57710   0.32488   1.000
    Zr169   Zr   0.23768   0.92290   0.32488   1.000
    Zr170   Zr   0.51232   0.67290   0.57488   1.000
    Zr171   Zr   0.48768   0.32710   0.57488   1.000
    O172    O    0.43238   0.83030   0.70740   1.000
    O173    O    0.06762   0.66970   0.70740   1.000
    O174    O    0.68238   0.41970   0.95740   1.000
    O175    O    0.31762   0.58030   0.95740   1.000
    O176    O    0.93238   0.83030   0.20740   1.000
    O177    O    0.56762   0.66970   0.20740   1.000
    Zr178   Zr   0.94035   0.72724   0.62667   1.000
    Zr179   Zr   0.30965   0.97724   0.87667   1.000
    Zr180   Zr   0.19035   0.52276   0.87667   1.000
    Zr181   Zr   0.55965   0.27276   0.12667   1.000
    Zr182   Zr   0.44035   0.72724   0.12667   1.000
    Zr183   Zr   0.80965   0.97724   0.37667   1.000
    Zr184   Zr   0.69035   0.52276   0.37667   1.000
    Zr185   Zr   0.05965   0.77276   0.12667   1.000
    Zr186   Zr   0.94035   0.22724   0.12667   1.000
    Zr187   Zr   0.30965   0.47724   0.37667   1.000
    Zr188   Zr   0.19035   0.02276   0.37667   1.000
    Zr189   Zr   0.55965   0.77276   0.62667   1.000
    Zr190   Zr   0.44035   0.22724   0.62667   1.000
    Zr191   Zr   0.80965   0.47724   0.87667   1.000
    Zr192   Zr   0.69035   0.02276   0.87667   1.000
    O193    O    0.03782   0.70980   0.62420   1.000
    O194    O    0.21218   0.95980   0.87420   1.000
    O195    O    0.28782   0.54020   0.87420   1.000
    O196    O    0.46218   0.29020   0.12420   1.000
    O197    O    0.53782   0.70980   0.12420   1.000
    O198    O    0.71218   0.95980   0.37420   1.000
    O199    O    0.78782   0.54020   0.37420   1.000
    O200    O    0.96218   0.79020   0.12420   1.000
    O201    O    0.03782   0.20980   0.12420   1.000
    O202    O    0.21218   0.45980   0.37420   1.000
    O203    O    0.28782   0.04020   0.37420   1.000
    O204    O    0.46218   0.79020   0.62420   1.000
    O205    O    0.53782   0.20980   0.62420   1.000
    O206    O    0.71218   0.45980   0.87420   1.000
    O207    O    0.78782   0.04020   0.87420   1.000
    O208    O    0.01491   0.82160   0.63840   1.000
    O209    O    0.23509   0.07160   0.88840   1.000
    O210    O    0.26491   0.42840   0.88840   1.000
    O211    O    0.48509   0.17840   0.13840   1.000
    O212    O    0.51491   0.82160   0.13840   1.000
    O213    O    0.73509   0.07160   0.38840   1.000
    O214    O    0.76491   0.42840   0.38840   1.000
    O215    O    0.98509   0.67840   0.13840   1.000
    O216    O    0.01491   0.32160   0.13840   1.000
    O217    O    0.23509   0.57160   0.38840   1.000
    O218    O    0.26491   0.92840   0.38840   1.000
    O219    O    0.48509   0.67840   0.63840   1.000
    O220    O    0.51491   0.32160   0.63840   1.000
    O221    O    0.73509   0.57160   0.88840   1.000
    O222    O    0.76491   0.92840   0.88840   1.000
    O223    O    0.84743   0.51910   0.83440   1.000
    O224    O    0.40257   0.76910   0.08440   1.000
    O225    O    0.09743   0.73090   0.08440   1.000
    O226    O    0.65257   0.48090   0.33440   1.000
    O227    O    0.34743   0.51910   0.33440   1.000
    O228    O    0.90257   0.76910   0.58440   1.000
    O229    O    0.59743   0.73090   0.58440   1.000
    O230    O    0.15257   0.98090   0.33440   1.000
    O231    O    0.84743   0.01910   0.33440   1.000
    O232    O    0.40257   0.26910   0.58440   1.000
    O233    O    0.53140   0.59590   0.58160   1.000
    O234    O    0.46860   0.40410   0.58160   1.000
    O235    O    0.78140   0.65410   0.83160   1.000
    O236    O    0.71860   0.84590   0.83160   1.000
    O237    O    0.81680   0.57720   0.79280   1.000
    O238    O    0.43320   0.82720   0.04280   1.000
    O239    O    0.59743   0.23090   0.08440   1.000
    O240    O    0.98251   0.66540   0.61870   1.000
    O241    O    0.26749   0.91540   0.86870   1.000
    O242    O    0.23251   0.58460   0.86870   1.000
    O243    O    0.51749   0.33460   0.11870   1.000
    O244    O    0.48251   0.66540   0.11870   1.000
    O245    O    0.76749   0.91540   0.36870   1.000
    O246    O    0.73251   0.58460   0.36870   1.000
    O247    O    0.01749   0.83460   0.11870   1.000
    O248    O    0.98251   0.16540   0.11870   1.000
    O249    O    0.26749   0.41540   0.36870   1.000
    O250    O    0.23251   0.08460   0.36870   1.000
    O251    O    0.51749   0.83460   0.61870   1.000
    O252    O    0.48251   0.16540   0.61870   1.000
    O253    O    0.76749   0.41540   0.86870   1.000
    O254    O    0.73251   0.08460   0.86870   1.000
    H255    H    0.97460   0.62920   0.61410   1.000
    H256    H    0.27540   0.87920   0.86410   1.000
    H257    H    0.22460   0.62080   0.86410   1.000
    H258    H    0.52540   0.37080   0.11410   1.000
    H259    H    0.47460   0.62920   0.11410   1.000
    H260    H    0.77540   0.87920   0.36410   1.000
    H261    H    0.72460   0.62080   0.36410   1.000
    H262    H    0.02540   0.87080   0.11410   1.000
    H263    H    0.97460   0.12920   0.11410   1.000
    H264    H    0.27540   0.37920   0.36410   1.000
    H265    H    0.22460   0.12080   0.36410   1.000
    H266    H    0.52540   0.87080   0.61410   1.000
    H267    H    0.47460   0.12920   0.61410   1.000
    H268    H    0.77540   0.37920   0.86410   1.000
    H269    H    0.72460   0.12080   0.86410   1.000
    O270    O    0.15171   0.99850   0.83270   1.000
    O271    O    0.09829   0.24850   0.08270   1.000
    O272    O    0.40171   0.25150   0.08270   1.000
    O273    O    0.34829   0.00150   0.33270   1.000
    O274    O    0.65171   0.99850   0.33270   1.000
    O275    O    0.59829   0.24850   0.58270   1.000
    O276    O    0.90171   0.25150   0.58270   1.000
    O277    O    0.84829   0.50150   0.33270   1.000
    O278    O    0.15171   0.49850   0.33270   1.000
    O279    O    0.09829   0.74850   0.58270   1.000
    O280    O    0.40171   0.75150   0.58270   1.000
    O281    O    0.34829   0.50150   0.83270   1.000
    O282    O    0.65171   0.49850   0.83270   1.000
    O283    O    0.59829   0.74850   0.08270   1.000
    O284    O    0.90171   0.75150   0.08270   1.000
    O285    O    0.18214   0.94570   0.78430   1.000
    O286    O    0.06786   0.19570   0.03430   1.000
    O287    O    0.43214   0.30430   0.03430   1.000
    O288    O    0.31786   0.05430   0.28430   1.000
    O289    O    0.68214   0.94570   0.28430   1.000
    O290    O    0.56786   0.19570   0.53430   1.000
    O291    O    0.93214   0.30430   0.53430   1.000
    O292    O    0.81786   0.55430   0.28430   1.000
    O293    O    0.18214   0.44570   0.28430   1.000
    O294    O    0.06786   0.69570   0.53430   1.000
    O295    O    0.43214   0.80430   0.53430   1.000
    O296    O    0.31786   0.55430   0.78430   1.000
    O297    O    0.68214   0.44570   0.78430   1.000
    O298    O    0.56786   0.69570   0.03430   1.000
    O299    O    0.93214   0.80430   0.03430   1.000
    O300    O    0.18363   0.94710   0.48230   1.000
    O301    O    0.06637   0.19710   0.73230   1.000
    O302    O    0.43363   0.30290   0.73230   1.000
    O303    O    0.31637   0.05290   0.98230   1.000
    O304    O    0.68363   0.94710   0.98230   1.000
    O305    O    0.56637   0.19710   0.23230   1.000
    O306    O    0.93363   0.30290   0.23230   1.000
    O307    O    0.81637   0.55290   0.98230   1.000
    O308    O    0.18363   0.44710   0.98230   1.000
    O309    O    0.06637   0.69710   0.23230   1.000
    O310    O    0.43363   0.80290   0.23230   1.000
    O311    O    0.31637   0.55290   0.48230   1.000
    O312    O    0.68363   0.44710   0.48230   1.000
    O313    O    0.56637   0.69710   0.73230   1.000
    O314    O    0.93363   0.80290   0.73230   1.000
    O315    O    0.84782   0.51410   0.42510   1.000
    O316    O    0.40218   0.76410   0.67510   1.000
    O317    O    0.09782   0.73590   0.67510   1.000
    O318    O    0.65218   0.48590   0.92510   1.000
    O319    O    0.34782   0.51410   0.92510   1.000
    O320    O    0.90218   0.76410   0.17510   1.000
    O321    O    0.59782   0.73590   0.17510   1.000
    O322    O    0.15218   0.98590   0.92510   1.000
    O323    O    0.84782   0.01410   0.92510   1.000
    O324    O    0.40218   0.26410   0.17510   1.000
    O325    O    0.09782   0.23590   0.17510   1.000
    O326    O    0.65218   0.98590   0.42510   1.000
    O327    O    0.34782   0.01410   0.42510   1.000
    O328    O    0.90218   0.26410   0.67510   1.000
    O329    O    0.59782   0.23590   0.67510   1.000
    O330    O    0.99081   0.81020   0.26150   1.000
    O331    O    0.25919   0.06020   0.51150   1.000
    O332    O    0.24081   0.43980   0.51150   1.000
    O333    O    0.50919   0.18980   0.76150   1.000
    O334    O    0.49081   0.81020   0.76150   1.000
    O335    O    0.75919   0.06020   0.01150   1.000
    O336    O    0.74081   0.43980   0.01150   1.000
    O337    O    0.00919   0.68980   0.76150   1.000
    O338    O    0.99081   0.31020   0.76150   1.000
    O339    O    0.25919   0.56020   0.01150   1.000
    O340    O    0.24081   0.93980   0.01150   1.000
    O341    O    0.50919   0.68980   0.26150   1.000
    O342    O    0.49081   0.31020   0.26150   1.000
    O343    O    0.75919   0.56020   0.51150   1.000
    O344    O    0.74081   0.93980   0.51150   1.000
    O345    O    0.92151   0.66100   0.66810   1.000
    O346    O    0.32849   0.91100   0.91810   1.000
    O347    O    0.17151   0.58900   0.91810   1.000
    O348    O    0.57849   0.33900   0.16810   1.000
    O349    O    0.42151   0.66100   0.16810   1.000
    O350    O    0.82849   0.91100   0.41810   1.000
    O351    O    0.67151   0.58900   0.41810   1.000
    O352    O    0.07849   0.83900   0.16810   1.000
    O353    O    0.92151   0.16100   0.16810   1.000
    O354    O    0.32849   0.41100   0.41810   1.000
    O355    O    0.17151   0.08900   0.41810   1.000
    O356    O    0.57849   0.83900   0.66810   1.000
    O357    O    0.42151   0.16100   0.66810   1.000
    O358    O    0.82849   0.41100   0.91810   1.000
    O359    O    0.67151   0.08900   0.91810   1.000
    O360    O    0.15282   0.99390   0.42950   1.000
    O361    O    0.09718   0.24390   0.67950   1.000
    O362    O    0.40282   0.25610   0.67950   1.000
    O363    O    0.34718   0.00610   0.92950   1.000
    O364    O    0.65282   0.99390   0.92950   1.000
    O365    O    0.59718   0.24390   0.17950   1.000
    O366    O    0.90282   0.25610   0.17950   1.000
    O367    O    0.84718   0.50610   0.92950   1.000
    O368    O    0.15282   0.49390   0.92950   1.000
    O369    O    0.09718   0.74390   0.17950   1.000
    O370    O    0.40282   0.75610   0.17950   1.000
    O371    O    0.34718   0.50610   0.42950   1.000
    O372    O    0.65282   0.49390   0.42950   1.000
    O373    O    0.59718   0.74390   0.67950   1.000
    O374    O    0.90282   0.75610   0.67950   1.000
    O375    O    0.81762   0.58030   0.45740   1.000
    C376    C    0.84360   0.53460   0.96570   1.000
    C377    C    0.15640   0.46540   0.96570   1.000
    C378    C    0.09360   0.71540   0.21570   1.000
    C379    C    0.40640   0.78460   0.21570   1.000
    C380    C    0.34360   0.53460   0.46570   1.000
    C381    C    0.65640   0.46540   0.46570   1.000
    C382    C    0.59360   0.71540   0.71570   1.000
    C383    C    0.90640   0.78460   0.71570   1.000
    C384    C    0.11700   0.90390   0.74860   1.000
    C385    C    0.13300   0.15390   0.99860   1.000
    O386    O    0.18238   0.91970   0.95740   1.000
    O387    O    0.81762   0.08030   0.95740   1.000
    O388    O    0.43238   0.33030   0.20740   1.000
    O389    O    0.06762   0.16970   0.20740   1.000
    O390    O    0.68238   0.91970   0.45740   1.000
    O391    O    0.31762   0.08030   0.45740   1.000
    O392    O    0.93238   0.33030   0.70740   1.000
    O393    O    0.56762   0.16970   0.70740   1.000
    O394    O    0.07862   0.84940   0.59370   1.000
    O395    O    0.17138   0.09940   0.84370   1.000
    O396    O    0.32862   0.40060   0.84370   1.000
    O397    O    0.42138   0.15060   0.09370   1.000
    O398    O    0.57862   0.84940   0.09370   1.000
    O399    O    0.67138   0.09940   0.34370   1.000
    O400    O    0.82862   0.40060   0.34370   1.000
    O401    O    0.92138   0.65060   0.09370   1.000
    O402    O    0.07862   0.34940   0.09370   1.000
    O403    O    0.17138   0.59940   0.34370   1.000
    O404    O    0.32862   0.90060   0.34370   1.000
    O405    O    0.42138   0.65060   0.59370   1.000
    O406    O    0.57862   0.34940   0.59370   1.000
    O407    O    0.67138   0.59940   0.84370   1.000
    O408    O    0.82862   0.90060   0.84370   1.000
    O409    O    0.02690   0.61930   0.55130   1.000
    O410    O    0.22310   0.86930   0.80130   1.000
    O411    O    0.27690   0.63070   0.80130   1.000
    O412    O    0.47310   0.38070   0.05130   1.000
    O413    O    0.52690   0.61930   0.05130   1.000
    O414    O    0.72310   0.86930   0.30130   1.000
    O415    O    0.77690   0.63070   0.30130   1.000
    O416    O    0.97310   0.88070   0.05130   1.000
    O417    O    0.02690   0.11930   0.05130   1.000
    O418    O    0.22310   0.36930   0.30130   1.000
    O419    O    0.27690   0.13070   0.30130   1.000
    O420    O    0.47310   0.88070   0.55130   1.000
    O421    O    0.52690   0.11930   0.55130   1.000
    O422    O    0.72310   0.36930   0.80130   1.000
    O423    O    0.77690   0.13070   0.80130   1.000
    O424    O    0.96768   0.63420   0.71000   1.000
    O425    O    0.28232   0.88420   0.96000   1.000
    O426    O    0.21768   0.61580   0.96000   1.000
    O427    O    0.53232   0.36580   0.21000   1.000
    O428    O    0.46768   0.63420   0.21000   1.000
    O429    O    0.78232   0.88420   0.46000   1.000
    O430    O    0.71768   0.61580   0.46000   1.000
    O431    O    0.03232   0.86580   0.21000   1.000
    O432    O    0.96768   0.13420   0.21000   1.000
    O433    O    0.28232   0.38420   0.46000   1.000
    O434    O    0.21768   0.11580   0.46000   1.000
    O435    O    0.53232   0.86580   0.71000   1.000
    O436    O    0.46768   0.13420   0.71000   1.000
    O437    O    0.78232   0.38420   0.96000   1.000
    O438    O    0.71768   0.11580   0.96000   1.000
    O439    O    0.03407   0.75890   0.70180   1.000
    O440    O    0.21593   0.00890   0.95180   1.000
    O441    O    0.28407   0.49110   0.95180   1.000
    O442    O    0.46593   0.24110   0.20180   1.000
    O443    O    0.53407   0.75890   0.20180   1.000
    O444    O    0.71593   0.00890   0.45180   1.000
    O445    O    0.78407   0.49110   0.45180   1.000
    O446    O    0.96593   0.74110   0.20180   1.000
    O447    O    0.03407   0.25890   0.20180   1.000
    O448    O    0.21593   0.50890   0.45180   1.000
    O449    O    0.28407   0.99110   0.45180   1.000
    O450    O    0.46593   0.74110   0.70180   1.000
    O451    O    0.53407   0.25890   0.70180   1.000
    O452    O    0.71593   0.50890   0.95180   1.000
    O453    O    0.78407   0.99110   0.95180   1.000
    H454    H    0.04830   0.76100   0.73140   1.000
    H455    H    0.20170   0.01100   0.98140   1.000
    H456    H    0.29830   0.48900   0.98140   1.000
    H457    H    0.45170   0.23900   0.23140   1.000
    H458    H    0.54830   0.76100   0.23140   1.000
    H459    H    0.70170   0.01100   0.48140   1.000
    H460    H    0.79830   0.48900   0.48140   1.000
    H461    H    0.95170   0.73900   0.23140   1.000
    H462    H    0.04830   0.26100   0.23140   1.000
    H463    H    0.20170   0.51100   0.48140   1.000
    H464    H    0.29830   0.98900   0.48140   1.000
    H465    H    0.45170   0.73900   0.73140   1.000
    H466    H    0.54830   0.26100   0.73140   1.000
    H467    H    0.70170   0.51100   0.98140   1.000
    H468    H    0.79830   0.98900   0.98140   1.000
    O469    O    0.99135   0.81870   0.49660   1.000
    O470    O    0.25865   0.06870   0.74660   1.000
    O471    O    0.24135   0.43130   0.74660   1.000
    O472    O    0.50865   0.18130   0.99660   1.000
    O473    O    0.49135   0.81870   0.99660   1.000
    O474    O    0.75865   0.06870   0.24660   1.000
    O475    O    0.74135   0.43130   0.24660   1.000
    O476    O    0.00865   0.68130   0.99660   1.000
    O477    O    0.99135   0.31870   0.99660   1.000
    O478    O    0.25865   0.56870   0.24660   1.000
    O479    O    0.24135   0.93130   0.24660   1.000
    O480    O    0.50865   0.68130   0.49660   1.000
    O481    O    0.49135   0.31870   0.49660   1.000
    O482    O    0.75865   0.56870   0.74660   1.000
    O483    O    0.74135   0.93130   0.74660   1.000
    O484    O    0.96860   0.90410   0.58160   1.000
    O485    O    0.28140   0.15410   0.83160   1.000
    O486    O    0.21860   0.34590   0.83160   1.000
    O487    O    0.53140   0.09590   0.08160   1.000
    O488    O    0.46860   0.90410   0.08160   1.000
    O489    O    0.78140   0.15410   0.33160   1.000
    O490    O    0.71860   0.34590   0.33160   1.000
    O491    O    0.03140   0.59590   0.08160   1.000
    O492    O    0.96860   0.40410   0.08160   1.000
    O493    O    0.28140   0.65410   0.33160   1.000
    O494    O    0.21860   0.84590   0.33160   1.000
    H495    H    0.88430   0.38130   0.77100   1.000
    H496    H    0.61570   0.11870   0.77100   1.000
    N497    N    0.92820   0.57150   0.76420   1.000
    N498    N    0.32180   0.82150   0.01420   1.000
    N499    N    0.17820   0.67850   0.01420   1.000
    N500    N    0.57180   0.42850   0.26420   1.000
    N501    N    0.42820   0.57150   0.26420   1.000
    N502    N    0.82180   0.82150   0.51420   1.000
    N503    N    0.67820   0.67850   0.51420   1.000
    N504    N    0.07180   0.92850   0.26420   1.000
    N505    N    0.92820   0.07150   0.26420   1.000
    N506    N    0.32180   0.32150   0.51420   1.000
    N507    N    0.17820   0.17850   0.51420   1.000
    N508    N    0.57180   0.92850   0.76420   1.000
    O509    O    0.06680   0.67280   0.04280   1.000
    O510    O    0.68320   0.42280   0.29280   1.000
    O511    O    0.31680   0.57720   0.29280   1.000
    O512    O    0.93320   0.82720   0.54280   1.000
    O513    O    0.56680   0.67280   0.54280   1.000
    O514    O    0.18320   0.92280   0.29280   1.000
    O515    O    0.81680   0.07720   0.29280   1.000
    O516    O    0.43320   0.32720   0.54280   1.000
    O517    O    0.06680   0.17280   0.54280   1.000
    O518    O    0.68320   0.92280   0.79280   1.000
    O519    O    0.31680   0.07720   0.79280   1.000
    O520    O    0.93320   0.32720   0.04280   1.000
    O521    O    0.56680   0.17280   0.04280   1.000
    O522    O    0.00830   0.72730   0.27480   1.000
    O523    O    0.24170   0.97730   0.52480   1.000
    O524    O    0.25830   0.52270   0.52480   1.000
    O525    O    0.49170   0.27270   0.77480   1.000
    O526    O    0.50830   0.72730   0.77480   1.000
    O527    O    0.74170   0.97730   0.02480   1.000
    O528    O    0.75830   0.52270   0.02480   1.000
    O529    O    0.99170   0.77270   0.77480   1.000
    O530    O    0.00830   0.22730   0.77480   1.000
    O531    O    0.24170   0.47730   0.02480   1.000
    O532    O    0.25830   0.02270   0.02480   1.000
    O533    O    0.49170   0.77270   0.27480   1.000
    O534    O    0.50830   0.22730   0.27480   1.000
    O535    O    0.74170   0.47730   0.52480   1.000
    O536    O    0.75830   0.02270   0.52480   1.000
    O537    O    0.07756   0.83690   0.68750   1.000
    O538    O    0.17244   0.08690   0.93750   1.000
    O539    O    0.32756   0.41310   0.93750   1.000
    O540    O    0.42244   0.16310   0.18750   1.000
    O541    O    0.57756   0.83690   0.18750   1.000
    O542    O    0.67244   0.08690   0.43750   1.000
    O543    O    0.82756   0.41310   0.43750   1.000
    O544    O    0.92244   0.66310   0.18750   1.000
    O545    O    0.07756   0.33690   0.18750   1.000
    O546    O    0.17244   0.58690   0.43750   1.000
    O547    O    0.32756   0.91310   0.43750   1.000
    O548    O    0.42244   0.66310   0.68750   1.000
    O549    O    0.57756   0.33690   0.68750   1.000
    O550    O    0.67244   0.58690   0.93750   1.000
    O551    O    0.82756   0.91310   0.93750   1.000
    O552    O    0.02660   0.60120   0.67280   1.000
    O553    O    0.22340   0.85120   0.92280   1.000
    O554    O    0.27660   0.64880   0.92280   1.000
    O555    O    0.47340   0.39880   0.17280   1.000
    O556    O    0.52660   0.60120   0.17280   1.000
    O557    O    0.72340   0.85120   0.42280   1.000
    O558    O    0.77660   0.64880   0.42280   1.000
    O559    O    0.97340   0.89880   0.17280   1.000
    O560    O    0.02660   0.10120   0.17280   1.000
    O561    O    0.22340   0.35120   0.42280   1.000
    O562    O    0.27660   0.14880   0.42280   1.000
    O563    O    0.47340   0.89880   0.67280   1.000
    O564    O    0.52660   0.10120   0.67280   1.000
    O565    O    0.72340   0.35120   0.92280   1.000
    O566    O    0.77660   0.14880   0.92280   1.000
    O567    O    0.92250   0.67410   0.57010   1.000
    O568    O    0.32750   0.92410   0.82010   1.000
    O569    O    0.17250   0.57590   0.82010   1.000
    O570    O    0.57750   0.32590   0.07010   1.000
    O571    O    0.42250   0.67410   0.07010   1.000
    O572    O    0.82750   0.92410   0.32010   1.000
    O573    O    0.67250   0.57590   0.32010   1.000
    O574    O    0.07750   0.82590   0.07010   1.000
    O575    O    0.92250   0.17410   0.07010   1.000
    O576    O    0.32750   0.42410   0.32010   1.000
    O577    O    0.17250   0.07590   0.32010   1.000
    O578    O    0.57750   0.82590   0.57010   1.000
    O579    O    0.42250   0.17410   0.57010   1.000
    O580    O    0.82750   0.42410   0.82010   1.000
    O581    O    0.67250   0.07590   0.82010   1.000
    O582    O    0.03056   0.85600   0.73090   1.000
    O583    O    0.21944   0.10600   0.98090   1.000
    O584    O    0.28056   0.39400   0.98090   1.000
    O585    O    0.46944   0.14400   0.23090   1.000
    O586    O    0.53056   0.85600   0.23090   1.000
    O587    O    0.71944   0.10600   0.48090   1.000
    O588    O    0.78056   0.39400   0.48090   1.000
    O589    O    0.96944   0.64400   0.23090   1.000
    O590    O    0.03056   0.35600   0.23090   1.000
    O591    O    0.21944   0.60600   0.48090   1.000
    O592    O    0.28056   0.89400   0.48090   1.000
    O593    O    0.46944   0.64400   0.73090   1.000
    O594    O    0.53056   0.35600   0.73090   1.000
    O595    O    0.71944   0.60600   0.98090   1.000
    O596    O    0.78056   0.89400   0.98090   1.000
    C597    C    0.93670   0.63550   0.70090   1.000
    C598    C    0.31330   0.88550   0.95090   1.000
    C599    C    0.18670   0.61450   0.95090   1.000
    C600    C    0.56330   0.36450   0.20090   1.000
    C601    C    0.43670   0.63550   0.20090   1.000
    C602    C    0.81330   0.88550   0.45090   1.000
    C603    C    0.68670   0.61450   0.45090   1.000
    C604    C    0.06330   0.86450   0.20090   1.000
    C605    C    0.93670   0.13550   0.20090   1.000
    C606    C    0.31330   0.38550   0.45090   1.000
    C607    C    0.18670   0.11450   0.45090   1.000
    C608    C    0.56330   0.86450   0.70090   1.000
    C609    C    0.43670   0.13550   0.70090   1.000
    C610    C    0.81330   0.38550   0.95090   1.000
    C611    C    0.68670   0.11450   0.95090   1.000
    O612    O    0.96874   0.88720   0.70830   1.000
    O613    O    0.28126   0.13720   0.95830   1.000
    O614    O    0.21874   0.36280   0.95830   1.000
    O615    O    0.53126   0.11280   0.20830   1.000
    O616    O    0.46874   0.88720   0.20830   1.000
    O617    O    0.78126   0.13720   0.45830   1.000
    O618    O    0.71874   0.36280   0.45830   1.000
    O619    O    0.03126   0.61280   0.20830   1.000
    O620    O    0.96874   0.38720   0.20830   1.000
    O621    O    0.28126   0.63720   0.45830   1.000
    O622    O    0.21874   0.86280   0.45830   1.000
    O623    O    0.53126   0.61280   0.70830   1.000
    O624    O    0.46874   0.38720   0.70830   1.000
    O625    O    0.78126   0.63720   0.95830   1.000
    O626    O    0.71874   0.86280   0.95830   1.000
    O627    O    0.00760   0.73320   0.48470   1.000
    O628    O    0.24240   0.98320   0.73470   1.000
    O629    O    0.25760   0.51680   0.73470   1.000
    O630    O    0.49240   0.26680   0.98470   1.000
    O631    O    0.50760   0.73320   0.98470   1.000
    O632    O    0.74240   0.98320   0.23470   1.000
    O633    O    0.75760   0.51680   0.23470   1.000
    O634    O    0.99240   0.76680   0.98470   1.000
    O635    O    0.00760   0.23320   0.98470   1.000
    O636    O    0.24240   0.48320   0.23470   1.000
    O637    O    0.25760   0.01680   0.23470   1.000
    O638    O    0.49240   0.76680   0.48470   1.000
    O639    O    0.50760   0.23320   0.48470   1.000
    O640    O    0.74240   0.48320   0.73470   1.000
    O641    O    0.75760   0.01680   0.73470   1.000
    C642    C    0.87620   0.57840   0.46680   1.000
    C643    C    0.37380   0.82840   0.71680   1.000
    C644    C    0.12620   0.67160   0.71680   1.000
    C645    C    0.62380   0.42160   0.96680   1.000
    C646    C    0.37620   0.57840   0.96680   1.000
    C647    C    0.87380   0.82840   0.21680   1.000
    C648    C    0.62620   0.67160   0.21680   1.000
    C649    C    0.12380   0.92160   0.96680   1.000
    C650    C    0.87620   0.07840   0.96680   1.000
    C651    C    0.37380   0.32840   0.21680   1.000
    C652    C    0.12620   0.17160   0.21680   1.000
    C653    C    0.62380   0.92160   0.46680   1.000
    C654    C    0.37620   0.07840   0.46680   1.000
    C655    C    0.87380   0.32840   0.71680   1.000
    C656    C    0.62620   0.17160   0.71680   1.000
    C657    C    0.84390   0.55410   0.80290   1.000
    C658    C    0.40610   0.80410   0.05290   1.000
    C659    C    0.09390   0.69590   0.05290   1.000
    C660    C    0.65610   0.44590   0.30290   1.000
    C661    C    0.34390   0.55410   0.30290   1.000
    C662    C    0.90610   0.80410   0.55290   1.000
    C663    C    0.59390   0.69590   0.55290   1.000
    C664    C    0.15610   0.94590   0.30290   1.000
    C665    C    0.84390   0.05410   0.30290   1.000
    C666    C    0.40610   0.30410   0.55290   1.000
    C667    C    0.09390   0.19590   0.55290   1.000
    C668    C    0.65610   0.94590   0.80290   1.000
    C669    C    0.34390   0.05410   0.80290   1.000
    C670    C    0.90610   0.30410   0.05290   1.000
    C671    C    0.59390   0.19590   0.05290   1.000
    C672    C    0.91460   0.60450   0.73350   1.000
    C673    C    0.33540   0.85450   0.98350   1.000
    C674    C    0.16460   0.64550   0.98350   1.000
    C675    C    0.58540   0.39550   0.23350   1.000
    C676    C    0.41460   0.60450   0.23350   1.000
    C677    C    0.83540   0.85450   0.48350   1.000
    C678    C    0.66460   0.64550   0.48350   1.000
    C679    C    0.08540   0.89550   0.23350   1.000
    C680    C    0.91460   0.10450   0.23350   1.000
    C681    C    0.33540   0.35450   0.48350   1.000
    C682    C    0.16460   0.14550   0.48350   1.000
    C683    C    0.58540   0.89550   0.73350   1.000
    C684    C    0.41460   0.10450   0.73350   1.000
    C685    C    0.83540   0.35450   0.98350   1.000
    C686    C    0.66460   0.14550   0.98350   1.000
    C687    C    0.08220   0.89520   0.75050   1.000
    C688    C    0.16780   0.14520   0.00050   1.000
    C689    C    0.33220   0.35480   0.00050   1.000
    C690    C    0.41780   0.10480   0.25050   1.000
    C691    C    0.58220   0.89520   0.25050   1.000
    C692    C    0.66780   0.14520   0.50050   1.000
    C693    C    0.83220   0.35480   0.50050   1.000
    C694    C    0.91780   0.60480   0.25050   1.000
    C695    C    0.08220   0.39520   0.25050   1.000
    C696    C    0.16780   0.64520   0.50050   1.000
    C697    C    0.33220   0.85480   0.50050   1.000
    C698    C    0.41780   0.60480   0.75050   1.000
    C699    C    0.58220   0.39520   0.75050   1.000
    C700    C    0.66780   0.64520   0.00050   1.000
    C701    C    0.83220   0.85480   0.00050   1.000
    O702    O    0.96898   0.66010   0.52340   1.000
    O703    O    0.28102   0.91010   0.77340   1.000
    O704    O    0.21898   0.58990   0.77340   1.000
    O705    O    0.53102   0.33990   0.02340   1.000
    O706    O    0.46898   0.66010   0.02340   1.000
    O707    O    0.78102   0.91010   0.27340   1.000
    O708    O    0.71898   0.58990   0.27340   1.000
    O709    O    0.03102   0.83990   0.02340   1.000
    O710    O    0.96898   0.16010   0.02340   1.000
    O711    O    0.28102   0.41010   0.27340   1.000
    O712    O    0.21898   0.08990   0.27340   1.000
    O713    O    0.53102   0.83990   0.52340   1.000
    O714    O    0.46898   0.16010   0.52340   1.000
    O715    O    0.78102   0.41010   0.77340   1.000
    O716    O    0.71898   0.08990   0.77340   1.000
    C717    C    0.15470   0.96400   0.80120   1.000
    C718    C    0.09530   0.21400   0.05120   1.000
    C719    C    0.40470   0.28600   0.05120   1.000
    C720    C    0.34530   0.03600   0.30120   1.000
    C721    C    0.65470   0.96400   0.30120   1.000
    C722    C    0.59530   0.21400   0.55120   1.000
    C723    C    0.90470   0.28600   0.55120   1.000
    C724    C    0.84530   0.53600   0.30120   1.000
    C725    C    0.15470   0.46400   0.30120   1.000
    C726    C    0.09530   0.71400   0.55120   1.000
    C727    C    0.40470   0.78600   0.55120   1.000
    C728    C    0.34530   0.53600   0.80120   1.000
    C729    C    0.65470   0.46400   0.80120   1.000
    C730    C    0.59530   0.71400   0.05120   1.000
    C731    C    0.90470   0.78600   0.05120   1.000
    C732    C    0.06310   0.87880   0.56510   1.000
    C733    C    0.18690   0.12880   0.81510   1.000
    C734    C    0.31310   0.37120   0.81510   1.000
    C735    C    0.43690   0.12120   0.06510   1.000
    C736    C    0.56310   0.87880   0.06510   1.000
    C737    C    0.68690   0.12880   0.31510   1.000
    C738    C    0.81310   0.37120   0.31510   1.000
    C739    C    0.93690   0.62120   0.06510   1.000
    C740    C    0.06310   0.37880   0.06510   1.000
    C741    C    0.18690   0.62880   0.31510   1.000
    C742    C    0.31310   0.87120   0.31510   1.000
    C743    C    0.43690   0.62120   0.56510   1.000
    C744    C    0.56310   0.37880   0.56510   1.000
    C745    C    0.68690   0.62880   0.81510   1.000
    C746    C    0.81310   0.87120   0.81510   1.000
    C747    C    0.06170   0.85920   0.72040   1.000
    C748    C    0.18830   0.10920   0.97040   1.000
    C749    C    0.31170   0.39080   0.97040   1.000
    C750    C    0.43830   0.14080   0.22040   1.000
    C751    C    0.56170   0.85920   0.22040   1.000
    C752    C    0.68830   0.10920   0.47040   1.000
    C753    C    0.81170   0.39080   0.47040   1.000
    C754    C    0.93830   0.64080   0.22040   1.000
    C755    C    0.06170   0.35920   0.22040   1.000
    C756    C    0.18830   0.60920   0.47040   1.000
    C757    C    0.31170   0.89080   0.47040   1.000
    C758    C    0.43830   0.64080   0.72040   1.000
    C759    C    0.56170   0.35920   0.72040   1.000
    C760    C    0.68830   0.60920   0.97040   1.000
    C761    C    0.81170   0.89080   0.97040   1.000
    C762    C    0.84470   0.55540   0.44850   1.000
    C763    C    0.40530   0.80540   0.69850   1.000
    C764    C    0.09470   0.69460   0.69850   1.000
    C765    C    0.65530   0.44460   0.94850   1.000
    C766    C    0.34470   0.55540   0.94850   1.000
    C767    C    0.90530   0.80540   0.19850   1.000
    C768    C    0.59470   0.69460   0.19850   1.000
    C769    C    0.15530   0.94460   0.94850   1.000
    C770    C    0.84470   0.05540   0.94850   1.000
    C771    C    0.40530   0.30540   0.19850   1.000
    C772    C    0.09470   0.19460   0.19850   1.000
    C773    C    0.65530   0.94460   0.44850   1.000
    C774    C    0.34470   0.05540   0.44850   1.000
    C775    C    0.90530   0.30540   0.69850   1.000
    C776    C    0.59470   0.19460   0.69850   1.000
    C777    C    0.15640   0.96540   0.46570   1.000
    C778    C    0.09360   0.21540   0.71570   1.000
    C779    C    0.40640   0.28460   0.71570   1.000
    C780    C    0.34360   0.03460   0.96570   1.000
    C781    C    0.65640   0.96540   0.96570   1.000
    C782    C    0.59360   0.21540   0.21570   1.000
    C783    C    0.90640   0.28460   0.21570   1.000
    C784    C    0.43870   0.90550   0.20990   1.000
    C785    C    0.81130   0.15550   0.45990   1.000
    C786    C    0.68870   0.34450   0.45990   1.000
    C787    C    0.06130   0.59450   0.20990   1.000
    C788    C    0.93870   0.40550   0.20990   1.000
    C789    C    0.31130   0.65550   0.45990   1.000
    C790    C    0.18870   0.84450   0.45990   1.000
    C791    C    0.56130   0.59450   0.70990   1.000
    C792    C    0.43870   0.40550   0.70990   1.000
    C793    C    0.81130   0.65550   0.95990   1.000
    C794    C    0.68870   0.84450   0.95990   1.000
    O795    O    0.97980   0.56080   0.62740   1.000
    O796    O    0.27020   0.81080   0.87740   1.000
    O797    O    0.22980   0.68920   0.87740   1.000
    O798    O    0.52020   0.43920   0.12740   1.000
    O799    O    0.47980   0.56080   0.12740   1.000
    O800    O    0.77020   0.81080   0.37740   1.000
    O801    O    0.72980   0.68920   0.37740   1.000
    O802    O    0.02020   0.93920   0.12740   1.000
    O803    O    0.97980   0.06080   0.12740   1.000
    O804    O    0.27020   0.31080   0.37740   1.000
    O805    O    0.22980   0.18920   0.37740   1.000
    C806    C    0.36700   0.34610   0.99860   1.000
    C807    C    0.38300   0.09610   0.24860   1.000
    C808    C    0.61700   0.90390   0.24860   1.000
    C809    C    0.63300   0.15390   0.49860   1.000
    C810    C    0.86700   0.34610   0.49860   1.000
    C811    C    0.88300   0.59610   0.24860   1.000
    C812    C    0.11700   0.40390   0.24860   1.000
    C813    C    0.13300   0.65390   0.49860   1.000
    C814    C    0.36700   0.84610   0.49860   1.000
    C815    C    0.38300   0.59610   0.74860   1.000
    C816    C    0.61700   0.40390   0.74860   1.000
    C817    C    0.63300   0.65390   0.99860   1.000
    C818    C    0.86700   0.84610   0.99860   1.000
    H819    H    0.13330   0.88840   0.72790   1.000
    H820    H    0.11670   0.13840   0.97790   1.000
    H821    H    0.38330   0.36160   0.97790   1.000
    H822    H    0.36670   0.11160   0.22790   1.000
    H823    H    0.63330   0.88840   0.22790   1.000
    H824    H    0.61670   0.13840   0.47790   1.000
    H825    H    0.88330   0.36160   0.47790   1.000
    H826    H    0.86670   0.61160   0.22790   1.000
    H827    H    0.13330   0.38840   0.22790   1.000
    H828    H    0.11670   0.63840   0.47790   1.000
    H829    H    0.38330   0.86160   0.47790   1.000
    H830    H    0.36670   0.61160   0.72790   1.000
    H831    H    0.63330   0.38840   0.72790   1.000
    H832    H    0.61670   0.63840   0.97790   1.000
    H833    H    0.88330   0.86160   0.97790   1.000
    C834    C    0.99810   0.78640   0.41900   1.000
    C835    C    0.25190   0.03640   0.66900   1.000
    C836    C    0.24810   0.46360   0.66900   1.000
    C837    C    0.50190   0.21360   0.91900   1.000
    C838    C    0.49810   0.78640   0.91900   1.000
    C839    C    0.75190   0.03640   0.16900   1.000
    C840    C    0.74810   0.46360   0.16900   1.000
    C841    C    0.00190   0.71360   0.91900   1.000
    C842    C    0.99810   0.28640   0.91900   1.000
    C843    C    0.25190   0.53640   0.16900   1.000
    C844    C    0.24810   0.96360   0.16900   1.000
    C845    C    0.50190   0.71360   0.41900   1.000
    C846    C    0.49810   0.28640   0.41900   1.000
    C847    C    0.75190   0.53640   0.66900   1.000
    C848    C    0.74810   0.96360   0.66900   1.000
    N849    N    0.09414   0.96810   0.47350   1.000
    N850    N    0.15586   0.21810   0.72350   1.000
    N851    N    0.34414   0.28190   0.72350   1.000
    N852    N    0.40586   0.03190   0.97350   1.000
    N853    N    0.59414   0.96810   0.97350   1.000
    N854    N    0.65586   0.21810   0.22350   1.000
    N855    N    0.84414   0.28190   0.22350   1.000
    N856    N    0.90586   0.53190   0.97350   1.000
    N857    N    0.09414   0.46810   0.97350   1.000
    N858    N    0.15586   0.71810   0.22350   1.000
    N859    N    0.34414   0.78190   0.22350   1.000
    N860    N    0.40586   0.53190   0.47350   1.000
    N861    N    0.59414   0.46810   0.47350   1.000
    N862    N    0.65586   0.71810   0.72350   1.000
    N863    N    0.84414   0.78190   0.72350   1.000
    N864    N    0.06841   0.94440   0.50170   1.000
    N865    N    0.18159   0.19440   0.75170   1.000
    N866    N    0.31841   0.30560   0.75170   1.000
    N867    N    0.43159   0.05560   0.00170   1.000
    N868    N    0.56841   0.94440   0.00170   1.000
    N869    N    0.68159   0.19440   0.25170   1.000
    N870    N    0.81841   0.30560   0.25170   1.000
    N871    N    0.93159   0.55560   0.00170   1.000
    N872    N    0.06841   0.44440   0.00170   1.000
    N873    N    0.18159   0.69440   0.25170   1.000
    N874    N    0.31841   0.80560   0.25170   1.000
    N875    N    0.43159   0.55560   0.50170   1.000
    N876    N    0.56841   0.44440   0.50170   1.000
    N877    N    0.68159   0.69440   0.75170   1.000
    N878    N    0.81841   0.80560   0.75170   1.000
    C879    C    0.08464   0.91170   0.53550   1.000
    C880    C    0.16536   0.16170   0.78550   1.000
    C881    C    0.33464   0.33830   0.78550   1.000
    C882    C    0.41536   0.08830   0.03550   1.000
    C883    C    0.58464   0.91170   0.03550   1.000
    C884    C    0.66536   0.16170   0.28550   1.000
    C885    C    0.83464   0.33830   0.28550   1.000
    C886    C    0.91536   0.58830   0.03550   1.000
    C887    C    0.08464   0.41170   0.03550   1.000
    C888    C    0.16536   0.66170   0.28550   1.000
    C889    C    0.33464   0.83830   0.28550   1.000
    C890    C    0.41536   0.58830   0.53550   1.000
    C891    C    0.58464   0.41170   0.53550   1.000
    C892    C    0.66536   0.66170   0.78550   1.000
    C893    C    0.83464   0.83830   0.78550   1.000
    C894    C    0.12039   0.91520   0.52810   1.000
    C895    C    0.12961   0.16520   0.77810   1.000
    C896    C    0.37039   0.33480   0.77810   1.000
    C897    C    0.37961   0.08480   0.02810   1.000
    C898    C    0.62039   0.91520   0.02810   1.000
    C899    C    0.62961   0.16520   0.27810   1.000
    C900    C    0.87039   0.33480   0.27810   1.000
    C901    C    0.87961   0.58480   0.02810   1.000
    C902    C    0.12039   0.41520   0.02810   1.000
    C903    C    0.12961   0.66520   0.27810   1.000
    C904    C    0.37039   0.83480   0.27810   1.000
    C905    C    0.37961   0.58480   0.52810   1.000
    C906    C    0.62039   0.41520   0.52810   1.000
    C907    C    0.62961   0.66520   0.77810   1.000
    C908    C    0.87039   0.83480   0.77810   1.000
    H909    H    0.13740   0.89730   0.54580   1.000
    H910    H    0.11260   0.14730   0.79580   1.000
    H911    H    0.38740   0.35270   0.79580   1.000
    H912    H    0.36260   0.10270   0.04580   1.000
    H913    H    0.63740   0.89730   0.04580   1.000
    H914    H    0.61260   0.14730   0.29580   1.000
    H915    H    0.88740   0.35270   0.29580   1.000
    H916    H    0.86260   0.60270   0.04580   1.000
    H917    H    0.13740   0.39730   0.04580   1.000
    H918    H    0.11260   0.64730   0.29580   1.000
    H919    H    0.38740   0.85270   0.29580   1.000
    H920    H    0.36260   0.60270   0.54580   1.000
    H921    H    0.63740   0.39730   0.54580   1.000
    H922    H    0.61260   0.64730   0.79580   1.000
    H923    H    0.88740   0.85270   0.79580   1.000
    C924    C    0.12626   0.95000   0.48980   1.000
    C925    C    0.12374   0.20000   0.73980   1.000
    C926    C    0.37626   0.30000   0.73980   1.000
    C927    C    0.37374   0.05000   0.98980   1.000
    C928    C    0.62626   0.95000   0.98980   1.000
    C929    C    0.62374   0.20000   0.23980   1.000
    C930    C    0.87626   0.30000   0.23980   1.000
    C931    C    0.87374   0.55000   0.98980   1.000
    C932    C    0.12626   0.45000   0.98980   1.000
    C933    C    0.12374   0.70000   0.23980   1.000
    C934    C    0.37626   0.80000   0.23980   1.000
    C935    C    0.37374   0.55000   0.48980   1.000
    C936    C    0.62626   0.45000   0.48980   1.000
    C937    C    0.62374   0.70000   0.73980   1.000
    C938    C    0.87626   0.80000   0.73980   1.000
    N939    N    0.09280   0.95190   0.80460   1.000
    N940    N    0.15720   0.20190   0.05460   1.000
    N941    N    0.34280   0.29810   0.05460   1.000
    N942    N    0.40720   0.04810   0.30460   1.000
    N943    N    0.59280   0.95190   0.30460   1.000
    N944    N    0.65720   0.20190   0.55460   1.000
    N945    N    0.84280   0.29810   0.55460   1.000
    N946    N    0.90720   0.54810   0.30460   1.000
    N947    N    0.09280   0.45190   0.30460   1.000
    N948    N    0.15720   0.70190   0.55460   1.000
    N949    N    0.34280   0.79810   0.55460   1.000
    N950    N    0.40720   0.54810   0.80460   1.000
    N951    N    0.59280   0.45190   0.80460   1.000
    N952    N    0.65720   0.70190   0.05460   1.000
    N953    N    0.84280   0.79810   0.05460   1.000
    C954    C    0.99880   0.77880   0.47170   1.000
    C955    C    0.25120   0.02880   0.72170   1.000
    C956    C    0.24880   0.47120   0.72170   1.000
    C957    C    0.50120   0.22120   0.97170   1.000
    C958    C    0.49880   0.77880   0.97170   1.000
    C959    C    0.75120   0.02880   0.22170   1.000
    C960    C    0.74880   0.47120   0.22170   1.000
    C961    C    0.00120   0.72120   0.97170   1.000
    C962    C    0.99880   0.27880   0.97170   1.000
    C963    C    0.25120   0.52880   0.22170   1.000
    C964    C    0.24880   0.97120   0.22170   1.000
    C965    C    0.50120   0.72120   0.47170   1.000
    C966    C    0.49880   0.27880   0.47170   1.000
    C967    C    0.75120   0.52880   0.72170   1.000
    C968    C    0.74880   0.97120   0.72170   1.000
    C969    C    0.87610   0.56950   0.77770   1.000
    C970    C    0.37390   0.81950   0.02770   1.000
    C971    C    0.12610   0.68050   0.02770   1.000
    C972    C    0.62390   0.43050   0.27770   1.000
    C973    C    0.37610   0.56950   0.27770   1.000
    C974    C    0.87390   0.81950   0.52770   1.000
    C975    C    0.62610   0.68050   0.52770   1.000
    C976    C    0.12390   0.93050   0.27770   1.000
    C977    C    0.87610   0.06950   0.27770   1.000
    C978    C    0.37390   0.31950   0.52770   1.000
    C979    C    0.12610   0.18050   0.52770   1.000
    C980    C    0.62390   0.93050   0.77770   1.000
    C981    C    0.37610   0.06950   0.77770   1.000
    C982    C    0.87390   0.31950   0.02770   1.000
    C983    C    0.62610   0.18050   0.02770   1.000
    N984    N    0.90510   0.54930   0.79150   1.000
    N985    N    0.34490   0.79930   0.04150   1.000
    N986    N    0.15510   0.70070   0.04150   1.000
    N987    N    0.59490   0.45070   0.29150   1.000
    N988    N    0.40510   0.54930   0.29150   1.000
    N989    N    0.84490   0.79930   0.54150   1.000
    N990    N    0.65510   0.70070   0.54150   1.000
    N991    N    0.09490   0.95070   0.29150   1.000
    N992    N    0.90510   0.04930   0.29150   1.000
    N993    N    0.34490   0.29930   0.54150   1.000
    N994    N    0.15510   0.20070   0.54150   1.000
    N995    N    0.59490   0.95070   0.79150   1.000
    N996    N    0.40510   0.04930   0.79150   1.000
    N997    N    0.84490   0.29930   0.04150   1.000
    N998    N    0.65510   0.20070   0.04150   1.000
    C999    C    0.88220   0.61430   0.50180   1.000
    C1000   C    0.36780   0.86430   0.75180   1.000
    C1001   C    0.13220   0.63570   0.75180   1.000
    C1002   C    0.61780   0.38570   0.00180   1.000
    C1003   C    0.38220   0.61430   0.00180   1.000
    C1004   C    0.86780   0.86430   0.25180   1.000
    C1005   C    0.63220   0.63570   0.25180   1.000
    C1006   C    0.11780   0.88570   0.00180   1.000
    C1007   C    0.88220   0.11430   0.00180   1.000
    C1008   C    0.36780   0.36430   0.25180   1.000
    C1009   C    0.13220   0.13570   0.25180   1.000
    C1010   C    0.61780   0.88570   0.50180   1.000
    C1011   C    0.38220   0.11430   0.50180   1.000
    C1012   C    0.86780   0.36430   0.75180   1.000
    C1013   C    0.63220   0.13570   0.75180   1.000
    H1014   H    0.86570   0.63130   0.52100   1.000
    H1015   H    0.38430   0.88130   0.77100   1.000
    H1016   H    0.11570   0.61870   0.77100   1.000
    H1017   H    0.63430   0.36870   0.02100   1.000
    H1018   H    0.36570   0.63130   0.02100   1.000
    H1019   H    0.88430   0.88130   0.27100   1.000
    H1020   H    0.61570   0.61870   0.27100   1.000
    H1021   H    0.13430   0.86870   0.02100   1.000
    H1022   H    0.86570   0.13130   0.02100   1.000
    H1023   H    0.38430   0.38130   0.27100   1.000
    H1024   H    0.11570   0.11870   0.27100   1.000
    H1025   H    0.63430   0.86870   0.52100   1.000
    H1026   H    0.36570   0.13130   0.52100   1.000
    N1027   N    0.42820   0.07150   0.76420   1.000
    N1028   N    0.82180   0.32150   0.01420   1.000
    N1029   N    0.67820   0.17850   0.01420   1.000
    N1030   N    0.90750   0.56300   0.44950   1.000
    N1031   N    0.34250   0.81300   0.69950   1.000
    N1032   N    0.15750   0.68700   0.69950   1.000
    N1033   N    0.59250   0.43700   0.94950   1.000
    N1034   N    0.40750   0.56300   0.94950   1.000
    N1035   N    0.84250   0.81300   0.19950   1.000
    N1036   N    0.65750   0.68700   0.19950   1.000
    N1037   N    0.09250   0.93700   0.94950   1.000
    N1038   N    0.90750   0.06300   0.94950   1.000
    N1039   N    0.34250   0.31300   0.19950   1.000
    N1040   N    0.15750   0.18700   0.19950   1.000
    N1041   N    0.59250   0.93700   0.44950   1.000
    N1042   N    0.40750   0.06300   0.44950   1.000
    N1043   N    0.84250   0.31300   0.69950   1.000
    N1044   N    0.65750   0.18700   0.69950   1.000
    O1045   O    0.27508   0.99990   0.82660   1.000
    O1046   O    0.97460   0.73520   0.68120   1.000
    O1047   O    0.27540   0.98520   0.93120   1.000
    O1048   O    0.22460   0.51480   0.93120   1.000
    O1049   O    0.52540   0.26480   0.18120   1.000
    O1050   O    0.47460   0.73520   0.18120   1.000
    O1051   O    0.77540   0.98520   0.43120   1.000
    O1052   O    0.72460   0.51480   0.43120   1.000
    O1053   O    0.02540   0.76480   0.18120   1.000
    O1054   O    0.97460   0.23520   0.18120   1.000
    O1055   O    0.27540   0.48520   0.43120   1.000
    O1056   O    0.22460   0.01480   0.43120   1.000
    O1057   O    0.52540   0.76480   0.68120   1.000
    O1058   O    0.47460   0.23520   0.68120   1.000
    O1059   O    0.77540   0.48520   0.93120   1.000
    O1060   O    0.72460   0.01480   0.93120   1.000
    O1061   O    0.97492   0.74990   0.57660   1.000
    O1062   O    0.22492   0.50010   0.82660   1.000
    O1063   O    0.52508   0.25010   0.07660   1.000
    O1064   O    0.47492   0.74990   0.07660   1.000
    O1065   O    0.77508   0.99990   0.32660   1.000
    O1066   O    0.72492   0.50010   0.32660   1.000
    O1067   O    0.02508   0.75010   0.07660   1.000
    O1068   O    0.97492   0.24990   0.07660   1.000
    O1069   O    0.27508   0.49990   0.32660   1.000
    O1070   O    0.22492   0.00010   0.32660   1.000
    O1071   O    0.52508   0.75010   0.57660   1.000
    O1072   O    0.47492   0.24990   0.57660   1.000
    O1073   O    0.77508   0.49990   0.82660   1.000
    O1074   O    0.72492   0.00010   0.82660   1.000
    O1075   O    0.95263   0.81450   0.63710   1.000
    O1076   O    0.29737   0.06450   0.88710   1.000
    O1077   O    0.20263   0.43550   0.88710   1.000
    O1078   O    0.54737   0.18550   0.13710   1.000
    O1079   O    0.45263   0.81450   0.13710   1.000
    O1080   O    0.79737   0.06450   0.38710   1.000
    O1081   O    0.70263   0.43550   0.38710   1.000
    O1082   O    0.04737   0.68550   0.13710   1.000
    O1083   O    0.95263   0.31450   0.13710   1.000
    O1084   O    0.29737   0.56450   0.38710   1.000
    O1085   O    0.20263   0.93550   0.38710   1.000
    O1086   O    0.54737   0.68550   0.63710   1.000
    O1087   O    0.45263   0.31450   0.63710   1.000
    O1088   O    0.79737   0.56450   0.88710   1.000
    O1089   O    0.70263   0.93550   0.88710   1.000
    H1090   H    0.93270   0.83830   0.64000   1.000
    H1091   H    0.31730   0.08830   0.89000   1.000
    H1092   H    0.18270   0.41170   0.89000   1.000
    H1093   H    0.56730   0.16170   0.14000   1.000
    H1094   H    0.43270   0.83830   0.14000   1.000
    H1095   H    0.81730   0.08830   0.39000   1.000
    H1096   H    0.68270   0.41170   0.39000   1.000
    H1097   H    0.06730   0.66170   0.14000   1.000
    H1098   H    0.93270   0.33830   0.14000   1.000
    H1099   H    0.31730   0.58830   0.39000   1.000
    H1100   H    0.18270   0.91170   0.39000   1.000
    H1101   H    0.56730   0.66170   0.64000   1.000
    H1102   H    0.43270   0.33830   0.64000   1.000
    H1103   H    0.81730   0.58830   0.89000   1.000
    H1104   H    0.68270   0.91170   0.89000   1.000
    O1105   O    0.03427   0.77930   0.56150   1.000
    O1106   O    0.21573   0.02930   0.81150   1.000
    O1107   O    0.28427   0.47070   0.81150   1.000
    O1108   O    0.46573   0.22070   0.06150   1.000
    O1109   O    0.53427   0.77930   0.06150   1.000
    O1110   O    0.71573   0.02930   0.31150   1.000
    O1111   O    0.78427   0.47070   0.31150   1.000
    O1112   O    0.96573   0.72070   0.06150   1.000
    O1113   O    0.03427   0.27930   0.06150   1.000
    O1114   O    0.21573   0.52930   0.31150   1.000
    O1115   O    0.28427   0.97070   0.31150   1.000
    O1116   O    0.46573   0.72070   0.56150   1.000
    O1117   O    0.53427   0.27930   0.56150   1.000
    O1118   O    0.71573   0.52930   0.81150   1.000
    O1119   O    0.78427   0.97070   0.81150   1.000
    H1120   H    0.04860   0.78970   0.53340   1.000
    H1121   H    0.20140   0.03970   0.78340   1.000
    H1122   H    0.29860   0.46030   0.78340   1.000
    H1123   H    0.45140   0.21030   0.03340   1.000
    H1124   H    0.54860   0.78970   0.03340   1.000
    H1125   H    0.70140   0.03970   0.28340   1.000
    H1126   H    0.79860   0.46030   0.28340   1.000
    H1127   H    0.95140   0.71030   0.03340   1.000
    H1128   H    0.04860   0.28970   0.03340   1.000
    H1129   H    0.20140   0.53970   0.28340   1.000
    H1130   H    0.29860   0.96030   0.28340   1.000
    H1131   H    0.45140   0.71030   0.53340   1.000
    H1132   H    0.54860   0.28970   0.53340   1.000
    H1133   H    0.70140   0.53970   0.78340   1.000
    H1134   H    0.79860   0.96030   0.78340   1.000
    C1135   C    0.93800   0.65450   0.53430   1.000
    C1136   C    0.31200   0.90450   0.78430   1.000
    C1137   C    0.18800   0.59550   0.78430   1.000
    C1138   C    0.56200   0.34550   0.03430   1.000
    C1139   C    0.43800   0.65450   0.03430   1.000
    C1140   C    0.81200   0.90450   0.28430   1.000
    C1141   C    0.68800   0.59550   0.28430   1.000
    C1142   C    0.06200   0.84550   0.03430   1.000
    C1143   C    0.93800   0.15450   0.03430   1.000
    C1144   C    0.31200   0.40450   0.28430   1.000
    C1145   C    0.18800   0.09550   0.28430   1.000
    C1146   C    0.56200   0.84550   0.53430   1.000
    C1147   C    0.43800   0.15450   0.53430   1.000
    C1148   C    0.81200   0.40450   0.78430   1.000
    C1149   C    0.68800   0.09550   0.78430   1.000
    O1150   O    0.03156   0.88120   0.55800   1.000
    O1151   O    0.21844   0.13120   0.80800   1.000
    O1152   O    0.28156   0.36880   0.80800   1.000
    O1153   O    0.46844   0.11880   0.05800   1.000
    O1154   O    0.53156   0.88120   0.05800   1.000
    O1155   O    0.71844   0.13120   0.30800   1.000
    O1156   O    0.78156   0.36880   0.30800   1.000
    O1157   O    0.96844   0.61880   0.05800   1.000
    O1158   O    0.03156   0.38120   0.05800   1.000
    O1159   O    0.21844   0.63120   0.30800   1.000
    O1160   O    0.28156   0.86880   0.30800   1.000
    O1161   O    0.46844   0.61880   0.55800   1.000
    O1162   O    0.53156   0.38120   0.55800   1.000
    O1163   O    0.71844   0.63120   0.80800   1.000
    O1164   O    0.78156   0.86880   0.80800   1.000
    N1165   N    0.93260   0.58870   0.47150   1.000
    N1166   N    0.31740   0.83870   0.72150   1.000
    N1167   N    0.18260   0.66130   0.72150   1.000
    N1168   N    0.56740   0.41130   0.97150   1.000
    N1169   N    0.43260   0.58870   0.97150   1.000
    N1170   N    0.81740   0.83870   0.22150   1.000
    N1171   N    0.68260   0.66130   0.22150   1.000
    N1172   N    0.06740   0.91130   0.97150   1.000
    N1173   N    0.93260   0.08870   0.97150   1.000
    N1174   N    0.31740   0.33870   0.22150   1.000
    N1175   N    0.18260   0.16130   0.22150   1.000
    N1176   N    0.56740   0.91130   0.47150   1.000
    N1177   N    0.43260   0.08870   0.47150   1.000
    N1178   N    0.81740   0.33870   0.72150   1.000
    N1179   N    0.68260   0.16130   0.72150   1.000
    C1180   C    0.00390   0.75370   0.38030   1.000
    C1181   C    0.24610   0.00370   0.63030   1.000
    C1182   C    0.25390   0.49630   0.63030   1.000
    C1183   C    0.49610   0.24630   0.88030   1.000
    C1184   C    0.50390   0.75370   0.88030   1.000
    C1185   C    0.74610   0.00370   0.13030   1.000
    C1186   C    0.75390   0.49630   0.13030   1.000
    C1187   C    0.99610   0.74630   0.88030   1.000
    C1188   C    0.00390   0.25370   0.88030   1.000
    C1189   C    0.24610   0.50370   0.13030   1.000
    C1190   C    0.25390   0.99630   0.13030   1.000
    C1191   C    0.49610   0.74630   0.38030   1.000
    C1192   C    0.50390   0.25370   0.38030   1.000
    C1193   C    0.74610   0.50370   0.63030   1.000
    C1194   C    0.75390   0.99630   0.63030   1.000
    H1195   H    0.01010   0.71850   0.38150   1.000
    H1196   H    0.23990   0.96850   0.63150   1.000
    H1197   H    0.26010   0.53150   0.63150   1.000
    H1198   H    0.48990   0.28150   0.88150   1.000
    H1199   H    0.51010   0.71850   0.88150   1.000
    H1200   H    0.73990   0.96850   0.13150   1.000
    H1201   H    0.76010   0.53150   0.13150   1.000
    H1202   H    0.98990   0.78150   0.88150   1.000
    H1203   H    0.01010   0.21850   0.88150   1.000
    H1204   H    0.23990   0.46850   0.13150   1.000
    H1205   H    0.26010   0.03150   0.13150   1.000
    H1206   H    0.48990   0.78150   0.38150   1.000
    H1207   H    0.51010   0.21850   0.38150   1.000
    H1208   H    0.73990   0.46850   0.63150   1.000
    H1209   H    0.76010   0.03150   0.63150   1.000
    C1210   C    0.88060   0.60450   0.74070   1.000
    C1211   C    0.36940   0.85450   0.99070   1.000
    C1212   C    0.13060   0.64550   0.99070   1.000
    C1213   C    0.61940   0.39550   0.24070   1.000
    C1214   C    0.38060   0.60450   0.24070   1.000
    C1215   C    0.86940   0.85450   0.49070   1.000
    C1216   C    0.63060   0.64550   0.49070   1.000
    C1217   C    0.11940   0.89550   0.24070   1.000
    C1218   C    0.88060   0.10450   0.24070   1.000
    C1219   C    0.36940   0.35450   0.49070   1.000
    C1220   C    0.13060   0.14550   0.49070   1.000
    C1221   C    0.61940   0.89550   0.74070   1.000
    C1222   C    0.38060   0.10450   0.74070   1.000
    C1223   C    0.86940   0.35450   0.99070   1.000
    C1224   C    0.63060   0.14550   0.99070   1.000
    H1225   H    0.86370   0.62400   0.72440   1.000
    H1226   H    0.38630   0.87400   0.97440   1.000
    H1227   H    0.11370   0.62600   0.97440   1.000
    H1228   H    0.63630   0.37600   0.22440   1.000
    H1229   H    0.36370   0.62400   0.22440   1.000
    H1230   H    0.88630   0.87400   0.47440   1.000
    H1231   H    0.61370   0.62600   0.47440   1.000
    H1232   H    0.13630   0.87600   0.22440   1.000
    H1233   H    0.86370   0.12400   0.22440   1.000
    H1234   H    0.38630   0.37400   0.47440   1.000
    H1235   H    0.11370   0.12600   0.47440   1.000
    H1236   H    0.63630   0.87600   0.72440   1.000
    H1237   H    0.36370   0.12400   0.72440   1.000
    H1238   H    0.88630   0.37400   0.97440   1.000
    H1239   H    0.61370   0.12600   0.97440   1.000
    N1240   N    0.99040   0.83450   0.40180   1.000
    N1241   N    0.25960   0.08450   0.65180   1.000
    N1242   N    0.24040   0.41550   0.65180   1.000
    N1243   N    0.50960   0.16550   0.90180   1.000
    N1244   N    0.49040   0.83450   0.90180   1.000
    N1245   N    0.75960   0.08450   0.15180   1.000
    N1246   N    0.74040   0.41550   0.15180   1.000
    N1247   N    0.00960   0.66550   0.90180   1.000
    N1248   N    0.99040   0.33450   0.90180   1.000
    N1249   N    0.25960   0.58450   0.15180   1.000
    N1250   N    0.24040   0.91550   0.15180   1.000
    N1251   N    0.50960   0.66550   0.40180   1.000
    N1252   N    0.49040   0.33450   0.40180   1.000
    N1253   N    0.75960   0.58450   0.65180   1.000
    N1254   N    0.74040   0.91550   0.65180   1.000
    N1255   N    0.99080   0.83140   0.35400   1.000
    N1256   N    0.25920   0.08140   0.60400   1.000
    N1257   N    0.24080   0.41860   0.60400   1.000
    N1258   N    0.50920   0.16860   0.85400   1.000
    N1259   N    0.49080   0.83140   0.85400   1.000
    N1260   N    0.75920   0.08140   0.10400   1.000
    N1261   N    0.74080   0.41860   0.10400   1.000
    N1262   N    0.00920   0.66860   0.85400   1.000
    N1263   N    0.99080   0.33140   0.85400   1.000
    N1264   N    0.25920   0.58140   0.10400   1.000
    N1265   N    0.24080   0.91860   0.10400   1.000
    N1266   N    0.50920   0.66860   0.35400   1.000
    N1267   N    0.49080   0.33140   0.35400   1.000
    N1268   N    0.75920   0.58140   0.60400   1.000
    N1269   N    0.74080   0.91860   0.60400   1.000
    C1270   C    0.83290   0.87090   0.25350   1.000
    N1271   N    0.06850   0.92460   0.78400   1.000
    N1272   N    0.18150   0.17460   0.03400   1.000
    N1273   N    0.31850   0.32540   0.03400   1.000
    N1274   N    0.43150   0.07540   0.28400   1.000
    N1275   N    0.56850   0.92460   0.28400   1.000
    N1276   N    0.68150   0.17460   0.53400   1.000
    N1277   N    0.81850   0.32540   0.53400   1.000
    N1278   N    0.93150   0.57540   0.28400   1.000
    N1279   N    0.06850   0.42460   0.28400   1.000
    N1280   N    0.18150   0.67460   0.53400   1.000
    N1281   N    0.31850   0.82540   0.53400   1.000
    N1282   N    0.43150   0.57540   0.78400   1.000
    N1283   N    0.56850   0.42460   0.78400   1.000
    N1284   N    0.68150   0.67460   0.03400   1.000
    N1285   N    0.81850   0.82540   0.03400   1.000
    C1286   C    0.91710   0.62090   0.50350   1.000
    C1287   C    0.33290   0.87090   0.75350   1.000
    C1288   C    0.16710   0.62910   0.75350   1.000
    C1289   C    0.58290   0.37910   0.00350   1.000
    C1290   C    0.41710   0.62090   0.00350   1.000
    C1291   C    0.66710   0.62910   0.25350   1.000
    C1292   C    0.08290   0.87910   0.00350   1.000
    C1293   C    0.91710   0.12090   0.00350   1.000
    C1294   C    0.33290   0.37090   0.25350   1.000
    C1295   C    0.16710   0.12910   0.25350   1.000
    C1296   C    0.58290   0.87910   0.50350   1.000
    C1297   C    0.41710   0.12090   0.50350   1.000
    C1298   C    0.83290   0.37090   0.75350   1.000
    C1299   C    0.66710   0.12910   0.75350   1.000
    C1300   C    0.99890   0.78280   0.34060   1.000
    C1301   C    0.25110   0.03280   0.59060   1.000
    C1302   C    0.24890   0.46720   0.59060   1.000
    C1303   C    0.50110   0.21720   0.84060   1.000
    C1304   C    0.49890   0.78280   0.84060   1.000
    C1305   C    0.75110   0.03280   0.09060   1.000
    C1306   C    0.74890   0.46720   0.09060   1.000
    C1307   C    0.00110   0.71720   0.84060   1.000
    C1308   C    0.99890   0.28280   0.84060   1.000
    C1309   C    0.25110   0.53280   0.09060   1.000
    C1310   C    0.24890   0.96720   0.09060   1.000
    C1311   C    0.50110   0.71720   0.34060   1.000
    C1312   C    0.49890   0.28280   0.34060   1.000
    C1313   C    0.75110   0.53280   0.59060   1.000
    C1314   C    0.74890   0.96720   0.59060   1.000
    C1315   C    0.00010   0.77260   0.28830   1.000
    C1316   C    0.24990   0.02260   0.53830   1.000
    C1317   C    0.25010   0.47740   0.53830   1.000
    C1318   C    0.49990   0.22740   0.78830   1.000
    C1319   C    0.50010   0.77260   0.78830   1.000
    C1320   C    0.74990   0.02260   0.03830   1.000
    C1321   C    0.75010   0.47740   0.03830   1.000
    C1322   C    0.99990   0.72740   0.78830   1.000
    C1323   C    0.00010   0.27260   0.78830   1.000
    C1324   C    0.24990   0.52260   0.03830   1.000
    C1325   C    0.25010   0.97740   0.03830   1.000
    C1326   C    0.49990   0.72740   0.28830   1.000
    C1327   C    0.50010   0.27260   0.28830   1.000
    C1328   C    0.74990   0.52260   0.53830   1.000
    C1329   C    0.75010   0.97740   0.53830   1.000
    C1330   C    0.12230   0.93980   0.78320   1.000
    C1331   C    0.12770   0.18980   0.03320   1.000
    C1332   C    0.37230   0.31020   0.03320   1.000
    C1333   C    0.37770   0.06020   0.28320   1.000
    C1334   C    0.62230   0.93980   0.28320   1.000
    C1335   C    0.62770   0.18980   0.53320   1.000
    C1336   C    0.87230   0.31020   0.53320   1.000
    C1337   C    0.87770   0.56020   0.28320   1.000
    C1338   C    0.12230   0.43980   0.28320   1.000
    C1339   C    0.12770   0.68980   0.53320   1.000
    C1340   C    0.37230   0.81020   0.53320   1.000
    C1341   C    0.37770   0.56020   0.78320   1.000
    C1342   C    0.62230   0.43980   0.78320   1.000
    C1343   C    0.62770   0.68980   0.03320   1.000
    C1344   C    0.87230   0.81020   0.03320   1.000
    O1345   O    0.91560   0.90360   0.61410   1.000
    O1346   O    0.33440   0.15360   0.86410   1.000
    O1347   O    0.16560   0.34640   0.86410   1.000
    O1348   O    0.58440   0.09640   0.11410   1.000
    O1349   O    0.41560   0.90360   0.11410   1.000
    O1350   O    0.83440   0.15360   0.36410   1.000
    O1351   O    0.66560   0.34640   0.36410   1.000
    O1352   O    0.08440   0.59640   0.11410   1.000
    O1353   O    0.91560   0.40360   0.11410   1.000
    O1354   O    0.33440   0.65360   0.36410   1.000
    O1355   O    0.16560   0.84640   0.36410   1.000
    O1356   O    0.58440   0.59640   0.61410   1.000
    O1357   O    0.41560   0.40360   0.61410   1.000
    O1358   O    0.83440   0.65360   0.86410   1.000
    O1359   O    0.66560   0.84640   0.86410   1.000
    C1360   C    0.93940   0.92320   0.58750   1.000
    C1361   C    0.31060   0.17320   0.83750   1.000
    C1362   C    0.18940   0.32680   0.83750   1.000
    C1363   C    0.56060   0.07680   0.08750   1.000
    C1364   C    0.43940   0.92320   0.08750   1.000
    C1365   C    0.81060   0.17320   0.33750   1.000
    C1366   C    0.68940   0.32680   0.33750   1.000
    C1367   C    0.06060   0.57680   0.08750   1.000
    C1368   C    0.93940   0.42320   0.08750   1.000
    C1369   C    0.31060   0.67320   0.33750   1.000
    C1370   C    0.18940   0.82680   0.33750   1.000
    C1371   C    0.56060   0.57680   0.58750   1.000
    C1372   C    0.43940   0.42320   0.58750   1.000
    C1373   C    0.81060   0.67320   0.83750   1.000
    C1374   C    0.68940   0.82680   0.83750   1.000
    O1375   O    0.91670   0.89390   0.67770   1.000
    O1376   O    0.33330   0.14390   0.92770   1.000
    O1377   O    0.16670   0.35610   0.92770   1.000
    O1378   O    0.58330   0.10610   0.17770   1.000
    O1379   O    0.41670   0.89390   0.17770   1.000
    O1380   O    0.83330   0.14390   0.42770   1.000
    O1381   O    0.66670   0.35610   0.42770   1.000
    O1382   O    0.08330   0.60610   0.17770   1.000
    O1383   O    0.91670   0.39390   0.17770   1.000
    O1384   O    0.33330   0.64390   0.42770   1.000
    O1385   O    0.16670   0.85610   0.42770   1.000
    O1386   O    0.58330   0.60610   0.67770   1.000
    O1387   O    0.41670   0.39390   0.67770   1.000
    O1388   O    0.83330   0.64390   0.92770   1.000
    O1389   O    0.66670   0.85610   0.92770   1.000
    C1390   C    0.93870   0.90550   0.70990   1.000
    C1391   C    0.31130   0.15550   0.95990   1.000
    C1392   C    0.18870   0.34450   0.95990   1.000
    C1393   C    0.56130   0.09450   0.20990   1.000
    O1394   O    0.52020   0.93920   0.62740   1.000
    O1395   O    0.47980   0.06080   0.62740   1.000
    O1396   O    0.77020   0.31080   0.87740   1.000
    O1397   O    0.72980   0.18920   0.87740   1.000
    N1398   N    0.96350   0.97260   0.69200   1.000
    N1399   N    0.28650   0.22260   0.94200   1.000
    N1400   N    0.21350   0.27740   0.94200   1.000
    N1401   N    0.53650   0.02740   0.19200   1.000
    N1402   N    0.46350   0.97260   0.19200   1.000
    N1403   N    0.78650   0.22260   0.44200   1.000
    N1404   N    0.71350   0.27740   0.44200   1.000
    N1405   N    0.03650   0.52740   0.19200   1.000
    N1406   N    0.96350   0.47260   0.19200   1.000
    N1407   N    0.28650   0.72260   0.44200   1.000
    N1408   N    0.21350   0.77740   0.44200   1.000
    N1409   N    0.53650   0.52740   0.69200   1.000
    N1410   N    0.46350   0.47260   0.69200   1.000
    N1411   N    0.78650   0.72260   0.94200   1.000
    N1412   N    0.71350   0.77740   0.94200   1.000
    C1413   C    0.05060   0.58930   0.55840   1.000
    C1414   C    0.19940   0.83930   0.80840   1.000
    C1415   C    0.30060   0.66070   0.80840   1.000
    C1416   C    0.44940   0.41070   0.05840   1.000
    C1417   C    0.55060   0.58930   0.05840   1.000
    C1418   C    0.69940   0.83930   0.30840   1.000
    C1419   C    0.80060   0.66070   0.30840   1.000
    C1420   C    0.94940   0.91070   0.05840   1.000
    C1421   C    0.05060   0.08930   0.05840   1.000
    C1422   C    0.19940   0.33930   0.30840   1.000
    C1423   C    0.30060   0.16070   0.30840   1.000
    C1424   C    0.44940   0.91070   0.55840   1.000
    C1425   C    0.55060   0.08930   0.55840   1.000
    C1426   C    0.69940   0.33930   0.80840   1.000
    C1427   C    0.80060   0.16070   0.80840   1.000
    C1428   C    0.98050   0.92790   0.68880   1.000
    C1429   C    0.26950   0.17790   0.93880   1.000
    C1430   C    0.23050   0.32210   0.93880   1.000
    C1431   C    0.51950   0.07210   0.18880   1.000
    C1432   C    0.48050   0.92790   0.18880   1.000
    C1433   C    0.76950   0.17790   0.43880   1.000
    C1434   C    0.73050   0.32210   0.43880   1.000
    C1435   C    0.01950   0.57210   0.18880   1.000
    C1436   C    0.98050   0.42790   0.18880   1.000
    C1437   C    0.26950   0.67790   0.43880   1.000
    C1438   C    0.23050   0.82210   0.43880   1.000
    C1439   C    0.51950   0.57210   0.68880   1.000
    C1440   C    0.48050   0.42790   0.68880   1.000
    C1441   C    0.76950   0.67790   0.93880   1.000
    C1442   C    0.73050   0.82210   0.93880   1.000
    C1443   C    0.92810   0.97760   0.70900   1.000
    C1444   C    0.32190   0.22760   0.95900   1.000
    C1445   C    0.17810   0.27240   0.95900   1.000
    C1446   C    0.57190   0.02240   0.20900   1.000
    C1447   C    0.42810   0.97760   0.20900   1.000
    C1448   C    0.82190   0.22760   0.45900   1.000
    C1449   C    0.67810   0.27240   0.45900   1.000
    C1450   C    0.07190   0.52240   0.20900   1.000
    C1451   C    0.92810   0.47760   0.20900   1.000
    C1452   C    0.32190   0.72760   0.45900   1.000
    C1453   C    0.17810   0.77240   0.45900   1.000
    C1454   C    0.57190   0.52240   0.70900   1.000
    C1455   C    0.42810   0.47760   0.70900   1.000
    C1456   C    0.82190   0.72760   0.95900   1.000
    C1457   C    0.67810   0.77240   0.95900   1.000
    C1458   C    0.00810   0.56510   0.65410   1.000
    C1459   C    0.24190   0.81510   0.90410   1.000
    C1460   C    0.25810   0.68490   0.90410   1.000
    C1461   C    0.49190   0.43490   0.15410   1.000
    C1462   C    0.50810   0.56510   0.15410   1.000
    C1463   C    0.74190   0.81510   0.40410   1.000
    C1464   C    0.75810   0.68490   0.40410   1.000
    C1465   C    0.99190   0.93490   0.15410   1.000
    C1466   C    0.00810   0.06510   0.15410   1.000
    C1467   C    0.24190   0.31510   0.40410   1.000
    C1468   C    0.25810   0.18490   0.40410   1.000
    C1469   C    0.49190   0.93490   0.65410   1.000
    C1470   C    0.50810   0.06510   0.65410   1.000
    C1471   C    0.74190   0.31510   0.90410   1.000
    C1472   C    0.75810   0.18490   0.90410   1.000
    O1473   O    0.06540   0.55420   0.53580   1.000
    O1474   O    0.18460   0.80420   0.78580   1.000
    O1475   O    0.31540   0.69580   0.78580   1.000
    O1476   O    0.43460   0.44580   0.03580   1.000
    O1477   O    0.56540   0.55420   0.03580   1.000
    O1478   O    0.68460   0.80420   0.28580   1.000
    O1479   O    0.81540   0.69580   0.28580   1.000
    O1480   O    0.93460   0.94580   0.03580   1.000
    O1481   O    0.06540   0.05420   0.03580   1.000
    O1482   O    0.18460   0.30420   0.28580   1.000
    O1483   O    0.31540   0.19580   0.28580   1.000
    O1484   O    0.43460   0.94580   0.53580   1.000
    O1485   O    0.56540   0.05420   0.53580   1.000
    O1486   O    0.68460   0.30420   0.78580   1.000
    O1487   O    0.81540   0.19580   0.78580   1.000
loop_
    _geom_bond_atom_site_label_1
    _geom_bond_atom_site_label_2
    _geom_bond_distance
    _geom_bond_site_symmetry_2
    _ccdc_geom_bond_type
    C688   N1272     1.32159      .   S
    C688   C748      1.49278  1_554   S
    C688   C385      1.38458  1_554   S
    C689   N1273     1.32159      .   S
    C689   C749      1.49278  1_554   S
    C689   C806      1.38458  1_554   S
    C700   N1284     1.32159      .   S
    C700   C760      1.49278  1_554   S
    C700   C817      1.38458  1_554   S
    C701   N1285     1.32159      .   S
    C701   C761      1.49278  1_554   S
    C701   C818      1.38458  1_554   S
    N867   C882      1.42040      .   S
    N867   N852      1.42025  1_554   S
    N868   C883      1.42040      .   S
    N868   N853      1.42025  1_554   S
    N871   C886      1.42040      .   S
    N871   N856      1.42025  1_554   S
    N872   C887      1.42040      .   S
    N872   N857      1.42025  1_554   S
    C1006  C1292     1.38039      .   S
    C1006  H1021     0.94928      .   S
    C1006  C649      1.37131  1_554   S
    C1003  C1290     1.38039      .   S
    C1003  H1018     0.94928      .   S
    C1003  C646      1.37131  1_554   S
    C1002  C1289     1.38039      .   S
    C1002  H1017     0.94928      .   S
    C1002  C645      1.37131  1_554   S
    C1007  C1293     1.38039      .   S
    C1007  H1022     0.94928      .   S
    C1007  C650      1.37131  1_554   S
    C1289  C1138     1.47443      .   S
    C1289  N1168     1.36668  1_554   S
    C1290  C1139     1.47443      .   S
    C1290  N1169     1.36668  1_554   S
    C1292  C1142     1.47443      .   S
    C1292  N1172     1.36668  1_554   S
    C1293  C1143     1.47443      .   S
    C1293  N1173     1.36668  1_554   S
    O335   C1320     1.28388      .   S
    O335   Zr158     2.17418  1_554   S
    O336   C1321     1.28388      .   S
    O336   Zr157     2.17418  1_554   S
    O339   C1324     1.28388      .   S
    O339   Zr146     2.17418  1_554   S
    O340   C1325     1.28388      .   S
    O340   Zr145     2.17418  1_554   S
    N498   N985      1.31686      .   S
    N498   C673      1.32464  1_554   S
    N499   N986      1.31686      .   S
    N499   C674      1.32464  1_554   S
    N1028  N997      1.31686      .   S
    N1028  C685      1.32464  1_554   S
    N1029  N998      1.31686      .   S
    N1029  C686      1.32464  1_554   S
    O710   C1143     1.26099      .   S
    O710   Zr122     2.24497  1_655   S
    O709   C1142     1.26099      .   S
    O709   Zr121     2.24497  1_455   S
    O706   C1139     1.26099      .   S
    O706   Zr118     2.24497      .   S
    O705   C1138     1.26099      .   S
    O705   Zr117     2.24497      .   S
    O532   C1325     1.27840  1_545   S
    O531   C1324     1.27840      .   S
    O528   C1321     1.27840      .   S
    O527   C1320     1.27840  1_565   S
    C970   N985      1.31076      .   S
    C970   C658      1.49981      .   S
    C970   C1211     1.38746  1_554   S
    C971   N986      1.31076      .   S
    C971   C659      1.49981      .   S
    C971   C1212     1.38746  1_554   S
    C982   N997      1.31076      .   S
    C982   C670      1.49981      .   S
    C982   C1223     1.38746  1_554   S
    C983   N998      1.31076      .   S
    C983   C671      1.49981      .   S
    C983   C1224     1.38746  1_554   S
    C897   C882      1.42021      .   S
    C897   H912      0.95166      .   S
    C897   C927      1.41901  1_554   S
    C898   C883      1.42021      .   S
    C898   H913      0.95166      .   S
    C898   C928      1.41901  1_554   S
    C901   C886      1.42021      .   S
    C901   H916      0.95166      .   S
    C901   C931      1.41901  1_554   S
    C902   C887      1.42021      .   S
    C902   H917      0.95166      .   S
    C902   C932      1.41901  1_554   S
    C1344  C731      1.50444      .   S
    C1344  N953      1.33941      .   S
    C1344  C818      1.35892  1_554   S
    C1343  C730      1.50444      .   S
    C1343  N952      1.33941      .   S
    C1343  C817      1.35892  1_554   S
    C1332  C719      1.50444      .   S
    C1332  N941      1.33941      .   S
    C1332  C806      1.35892  1_554   S
    C1331  C718      1.50444      .   S
    C1331  N940      1.33941      .   S
    C1331  C385      1.35892  1_554   S
    H1124  O1109     1.00159      .   S
    H1128  O1113     1.00159      .   S
    H1123  O1108     1.00159      .   S
    H1127  O1112     1.00159      .   S
    N1285  N953      1.32020      .   S
    N1284  N952      1.32020      .   S
    N1273  N941      1.32020      .   S
    N1272  N940      1.32020      .   S
    O286   C718      1.26773      .   S
    O299   C731      1.26773      .   S
    O298   C730      1.26773      .   S
    O287   C719      1.26773      .   S
    C1138  O570      1.27529      .   S
    C1139  O571      1.27529      .   S
    C1142  O574      1.27529      .   S
    C1143  O575      1.27529      .   S
    C882   C735      1.45872      .   S
    C883   C736      1.45872      .   S
    C886   C739      1.45872      .   S
    C887   C740      1.45872      .   S
    O1476  C1416     1.25226      .   S
    O1477  C1417     1.25226      .   S
    O1480  C1420     1.25226      .   S
    O1481  C1421     1.25226      .   S
    C1324  C1309     1.48318      .   S
    C1320  C1305     1.48318      .   S
    C1321  C1306     1.48318      .   S
    C1325  C1310     1.48318      .   S
    O238   C658      1.25313      .   S
    O520   C670      1.25313      .   S
    O521   C671      1.25313      .   S
    O509   C659      1.25313      .   S
    C718   O271      1.26140      .   S
    C719   O272      1.26140      .   S
    C730   O283      1.26140      .   S
    C731   O284      1.26140      .   S
    O412   C1416     1.22985      .   S
    O412   Zr117     2.17309      .   S
    O413   C1417     1.22985      .   S
    O413   Zr118     2.17309      .   S
    O416   C1420     1.22985      .   S
    O416   Zr121     2.17309      .   S
    O417   C1421     1.22985      .   S
    O417   Zr122     2.17309      .   S
    C671   O239      1.27282      .   S
    C670   O102      1.27282      .   S
    C659   O225      1.27282      .   S
    C658   O224      1.27282      .   S
    O1158  C740      1.25436      .   S
    O1153  C735      1.25436      .   S
    O1154  C736      1.25436      .   S
    O1157  C739      1.25436      .   S
    Zr122  O1113     2.23054      .   S
    Zr122  O1068     2.04619  1_455   S
    Zr121  O1112     2.23054      .   S
    Zr121  O1067     2.04619  1_655   S
    Zr118  O1109     2.23054      .   S
    Zr118  O1064     2.04619      .   S
    Zr117  O1108     2.23054      .   S
    Zr117  O1063     2.04619      .   S
    C740   O402      1.26166      .   S
    C739   O401      1.26166      .   S
    C736   O398      1.26166      .   S
    C735   O397      1.26166      .   S
    O570   Zr181     2.21144      .   S
    O571   Zr182     2.21144      .   S
    O574   Zr185     2.21144      .   S
    O575   Zr186     2.21144      .   S
    Zr166  O491      2.14679      .   S
    Zr166  O1082     2.23786      .   S
    Zr166  O215      2.07339  1_455   S
    Zr166  O476      2.19862  1_554   S
    Zr162  O487      2.14679      .   S
    Zr162  O1078     2.23786      .   S
    Zr162  O211      2.07339      .   S
    Zr162  O472      2.19862  1_554   S
    Zr163  O488      2.14679      .   S
    Zr163  O1079     2.23786      .   S
    Zr163  O212      2.07339      .   S
    Zr163  O473      2.19862  1_554   S
    Zr167  O492      2.14679      .   S
    Zr167  O1083     2.23786      .   S
    Zr167  O216      2.07339  1_655   S
    Zr167  O477      2.19862  1_554   S
    O1068  Zr186     2.03365      .   S
    O1067  Zr185     2.03365      .   S
    O1064  Zr182     2.03365      .   S
    O1063  Zr181     2.03365      .   S
    O487   C1363     1.25924      .   S
    O492   C1368     1.25924      .   S
    O488   C1364     1.25924      .   S
    O491   C1367     1.25924      .   S
    O284   Zr136     2.22163      .   S
    O283   Zr133     2.22163      .   S
    O272   Zr132     2.22163      .   S
    O271   Zr137     2.22163      .   S
    O224   Zr182     2.18437      .   S
    O239   Zr181     2.18437      .   S
    O102   Zr186     2.18437      .   S
    O225   Zr185     2.18437      .   S
    C1368  O1353     1.29680      .   S
    C1367  O1352     1.29680      .   S
    C1364  O1349     1.29680      .   S
    C1363  O1348     1.29680      .   S
    C1309  N1264     1.35627      .   S
    C1309  C1189     1.35551      .   S
    C1305  N1260     1.35627      .   S
    C1305  C1185     1.35551      .   S
    C1306  N1261     1.35627      .   S
    C1306  C1186     1.35551      .   S
    C1310  N1265     1.35627      .   S
    C1310  C1190     1.35551      .   S
    O397   Zr132     2.20954      .   S
    O398   Zr133     2.20954      .   S
    O401   Zr136     2.20954      .   S
    O402   Zr137     2.20954      .   S
    N1265  N1250     1.33553      .   S
    N1264  N1249     1.33553      .   S
    N1260  N1245     1.33553      .   S
    N1261  N1246     1.33553      .   S
    H262   O247      0.99990      .   S
    H259   O244      0.99990      .   S
    H258   O243      0.99990      .   S
    H263   O248      0.99990      .   S
    O244   Zr148     2.22841      .   S
    O247   Zr151     2.22841  1_455   S
    O243   Zr147     2.22841      .   S
    O248   Zr152     2.22841  1_655   S
    O197   Zr133     2.07127      .   S
    O197   Zr148     2.06761      .   S
    O196   Zr132     2.07127      .   S
    O196   Zr147     2.06761      .   S
    O200   Zr136     2.07127      .   S
    O200   Zr151     2.06761      .   S
    O201   Zr137     2.07127      .   S
    O201   Zr152     2.06761      .   S
    Zr186  O353      2.20252      .   S
    Zr186  O366      2.21385      .   S
    Zr186  O1054     2.03960      .   S
    Zr185  O352      2.20252      .   S
    Zr185  O369      2.21385      .   S
    Zr185  O1053     2.03960      .   S
    Zr182  O349      2.20252      .   S
    Zr182  O370      2.21385      .   S
    Zr182  O1050     2.03960      .   S
    Zr181  O348      2.20252      .   S
    Zr181  O365      2.21385      .   S
    Zr181  O1049     2.03960      .   S
    O802   C1465     1.34126  1_455   S
    O799   C1462     1.34126      .   S
    O803   C1466     1.34126  1_655   S
    O798   C1461     1.34126      .   S
    C1185  H1200     0.94816  1_545   S
    C1185  C839      1.39295      .   S
    C1190  H1205     0.94816  1_565   S
    C1190  C844      1.39295      .   S
    C1189  H1204     0.94816      .   S
    C1189  C843      1.39295      .   S
    C1186  H1201     0.94816      .   S
    C1186  C840      1.39295      .   S
    Zr137  O216      2.07096      .   S
    Zr137  O325      2.21872      .   S
    Zr137  O545      2.20215      .   S
    Zr136  O215      2.07096      .   S
    Zr136  O320      2.21872      .   S
    Zr136  O544      2.20215      .   S
    Zr132  O211      2.07096      .   S
    Zr132  O324      2.21872      .   S
    Zr132  O540      2.20215      .   S
    Zr133  O212      2.07096      .   S
    Zr133  O321      2.21872      .   S
    Zr133  O541      2.20215      .   S
    O1083  H1098     1.00052      .   S
    O1079  H1094     1.00052      .   S
    O1082  H1097     1.00052      .   S
    O1078  H1093     1.00052      .   S
    N1245  C839      1.37384      .   S
    N1249  C843      1.37384      .   S
    N1246  C840      1.37384      .   S
    N1250  C844      1.37384      .   S
    C1462  O556      1.29640      .   S
    C1461  O555      1.29640      .   S
    C1466  O560      1.29640      .   S
    C1465  O559      1.29640      .   S
    O348   C600      1.27742      .   S
    O349   C601      1.27742      .   S
    O352   C604      1.27742      .   S
    O353   C605      1.27742      .   S
    C844   C964      1.48314      .   S
    C839   C959      1.48314      .   S
    C840   C960      1.48314      .   S
    C843   C963      1.48314      .   S
    O559   Zr151     2.16659      .   S
    O560   Zr152     2.16659      .   S
    O556   Zr148     2.16659      .   S
    O555   Zr147     2.16659      .   S
    O325   C772      1.26311      .   S
    O324   C771      1.26311      .   S
    O320   C767      1.26311      .   S
    O321   C768      1.26311      .   S
    O1378  C1393     1.28140      .   S
    O1383  C788      1.28140      .   S
    O1382  C787      1.28140      .   S
    O1379  C784      1.28140      .   S
    O365   C782      1.26042      .   S
    O370   C379      1.26042      .   S
    O369   C378      1.26042      .   S
    O366   C783      1.26042      .   S
    O1054  Zr107     2.05329      .   S
    O1049  Zr0       2.05329      .   S
    O1050  Zr103     2.05329      .   S
    O1053  Zr106     2.05329      .   S
    Zr148  O443      2.23529      .   S
    Zr148  O341      2.17418      .   S
    Zr147  O442      2.23529      .   S
    Zr147  O342      2.17418      .   S
    Zr151  O446      2.23529      .   S
    Zr151  O330      2.17418      .   S
    Zr152  O447      2.23529      .   S
    Zr152  O16       2.17418      .   S
    O540   C750      1.25115      .   S
    O541   C751      1.25115      .   S
    O544   C754      1.25115      .   S
    O545   C755      1.25115      .   S
    C1432  N1402     1.34355      .   S
    C1432  O616      1.27664      .   S
    C1431  N1401     1.34355      .   S
    C1431  O615      1.27664      .   S
    C1436  N1406     1.34355      .   S
    C1436  O620      1.27664      .   S
    C1435  N1405     1.34355      .   S
    C1435  O619      1.27664      .   S
    N1402  C1447     1.47292      .   S
    N1405  C1450     1.47292      .   S
    N1401  C1446     1.47292      .   S
    N1406  C1451     1.47292      .   S
    C768   O177      1.26863      .   S
    C768   C648      1.46458      .   S
    C772   O389      1.26863      .   S
    C772   C652      1.46458      .   S
    C771   O388      1.26863      .   S
    C771   C651      1.46458      .   S
    C767   O176      1.26863      .   S
    C767   C647      1.46458      .   S
    N1040  C652      1.37856      .   S
    N1040  N1175     1.33892      .   S
    N1039  C651      1.37856      .   S
    N1039  N1174     1.33892      .   S
    N1035  C647      1.37856      .   S
    N1035  N1170     1.33892      .   S
    N1036  C648      1.37856      .   S
    N1036  N1171     1.33892      .   S
    C600   O427      1.24178      .   S
    C600   C675      1.49278      .   S
    C601   O428      1.24178      .   S
    C601   C676      1.49278      .   S
    C605   O432      1.24178      .   S
    C605   C680      1.49278      .   S
    C604   O431      1.24178      .   S
    C604   C679      1.49278      .   S
    Zr103  O586      2.25084      .   S
    Zr107  O590      2.25084  1_655   S
    Zr106  O589      2.25084  1_455   S
    Zr0    O585      2.25084      .   S
    O442   H457      0.99793      .   S
    O443   H458      0.99793      .   S
    O446   H461      0.99793      .   S
    O447   H462      0.99793      .   S
    O620   C788      1.27158      .   S
    O616   C784      1.27158      .   S
    O615   C1393     1.27158      .   S
    O619   C787      1.27158      .   S
    C783   O306      1.25764      .   S
    C783   C930      1.41764      .   S
    C379   O310      1.25764      .   S
    C379   C934      1.41764      .   S
    C378   O309      1.25764      .   S
    C378   C933      1.41764      .   S
    C782   O305      1.25764      .   S
    C782   C929      1.41764      .   S
    C647   C1004     1.37131      .   S
    C652   C1009     1.37131      .   S
    C648   C1005     1.37131      .   S
    C651   C1008     1.37131      .   S
    C751   O586      1.25874      .   S
    C751   C691      1.49278      .   S
    C755   O590      1.25874      .   S
    C755   C695      1.49278      .   S
    C750   O585      1.25874      .   S
    C750   C690      1.49278      .   S
    C754   O589      1.25874      .   S
    C754   C694      1.49278      .   S
    N1175  C1295     1.36668      .   S
    N1174  C1294     1.36668      .   S
    N1171  C1291     1.36668      .   S
    N1170  C1270     1.36668      .   S
    C964   O637      1.28769  1_565   S
    C964   O479      1.28267      .   S
    C960   O633      1.28769      .   S
    C960   O475      1.28267      .   S
    C959   O632      1.28769  1_545   S
    C959   O474      1.28267      .   S
    C963   O636      1.28769      .   S
    C963   O478      1.28267      .   S
    N854   C929      1.41969      .   S
    N854   N869      1.42025      .   S
    N855   C930      1.41969      .   S
    N855   N870      1.42025      .   S
    N858   C933      1.41969      .   S
    N858   N873      1.42025      .   S
    N859   C934      1.41969      .   S
    N859   N874      1.42025      .   S
    H1233  C1218     0.95047      .   S
    H1229  C1214     0.95047      .   S
    H1228  C1213     0.95047      .   S
    H1232  C1217     0.95047      .   S
    H822   C807      0.95110      .   S
    H823   C808      0.95110      .   S
    H827   C812      0.95110      .   S
    H826   C811      0.95110      .   S
    C680   C1218     1.34858      .   S
    C680   N505      1.32464      .   S
    C679   C1217     1.34858      .   S
    C679   N504      1.32464      .   S
    C676   C1214     1.34858      .   S
    C676   N501      1.32464      .   S
    C675   C1213     1.34858      .   S
    C675   N500      1.32464      .   S
    C929   C899      1.41901      .   S
    C934   C904      1.41901      .   S
    C933   C903      1.41901      .   S
    C930   C900      1.41901      .   S
    C1217  C976      1.38746      .   S
    C1218  C977      1.38746      .   S
    C1214  C973      1.38746      .   S
    C1213  C972      1.38746      .   S
    O475   Zr165     2.19862      .   S
    O478   Zr168     2.19862      .   S
    O479   Zr169     2.19862      .   S
    O474   Zr164     2.19862      .   S
    C807   C690      1.38458      .   S
    C807   C1333     1.35892      .   S
    C808   C691      1.38458      .   S
    C808   C1334     1.35892      .   S
    C811   C694      1.38458      .   S
    C811   C1337     1.35892      .   S
    C812   C695      1.38458      .   S
    C812   C1338     1.35892      .   S
    C694   N1278     1.32159      .   S
    C690   N1274     1.32159      .   S
    C691   N1275     1.32159      .   S
    C695   N1279     1.32159      .   S
    N869   C884      1.42040      .   S
    N870   C885      1.42040      .   S
    N873   C888      1.42040      .   S
    N874   C889      1.42040      .   S
    C1004  C1270     1.38039      .   S
    C1004  H1019     0.94928      .   S
    C1005  C1291     1.38039      .   S
    C1005  H1020     0.94928      .   S
    C1008  C1294     1.38039      .   S
    C1008  H1023     0.94928      .   S
    C1009  C1295     1.38039      .   S
    C1009  H1024     0.94928      .   S
    C1294  C1144     1.47443      .   S
    C1291  C1141     1.47443      .   S
    C1270  C1140     1.47443      .   S
    C1295  C1145     1.47443      .   S
    O16    C82       1.28388  1_455   S
    O342   C1327     1.28388      .   S
    O341   C1326     1.28388      .   S
    O330   C1315     1.28388  1_655   S
    N500   N987      1.31686      .   S
    N505   N992      1.31686      .   S
    N504   N991      1.31686      .   S
    N501   N988      1.31686      .   S
    O711   C1144     1.26099      .   S
    O711   Zr123     2.24497      .   S
    O708   C1141     1.26099      .   S
    O708   Zr120     2.24497      .   S
    O707   C1140     1.26099      .   S
    O707   Zr119     2.24497      .   S
    O712   C1145     1.26099      .   S
    O712   Zr124     2.24497      .   S
    O29    C82       1.27840      .   S
    O522   C1315     1.27840      .   S
    O533   C1326     1.27840      .   S
    O534   C1327     1.27840      .   S
    C972   N987      1.31076      .   S
    C972   C660      1.49981      .   S
    C973   N988      1.31076      .   S
    C973   C661      1.49981      .   S
    C977   N992      1.31076      .   S
    C977   C665      1.49981      .   S
    C976   N991      1.31076      .   S
    C976   C664      1.49981      .   S
    C904   C889      1.42021      .   S
    C904   H919      0.95166      .   S
    C903   C888      1.42021      .   S
    C903   H918      0.95166      .   S
    C900   C885      1.42021      .   S
    C900   H915      0.95166      .   S
    C899   C884      1.42021      .   S
    C899   H914      0.95166      .   S
    C1338  C725      1.50444      .   S
    C1338  N947      1.33941      .   S
    C1337  C724      1.50444      .   S
    C1337  N946      1.33941      .   S
    C1334  C721      1.50444      .   S
    C1334  N943      1.33941      .   S
    C1333  C720      1.50444      .   S
    C1333  N942      1.33941      .   S
    H1125  O1110     1.00159      .   S
    H1126  O1111     1.00159      .   S
    H1129  O1114     1.00159      .   S
    H1130  O1115     1.00159      .   S
    N1278  N946      1.32020      .   S
    N1279  N947      1.32020      .   S
    N1274  N942      1.32020      .   S
    N1275  N943      1.32020      .   S
    C1144  O576      1.27529      .   S
    C1140  O572      1.27529      .   S
    C1141  O573      1.27529      .   S
    C1145  O577      1.27529      .   S
    O288   C720      1.26773      .   S
    O289   C721      1.26773      .   S
    O292   C724      1.26773      .   S
    O293   C725      1.26773      .   S
    C885   C738      1.45872      .   S
    C889   C742      1.45872      .   S
    C888   C741      1.45872      .   S
    C884   C737      1.45872      .   S
    O1478  C1418     1.25226      .   S
    O1479  C1419     1.25226      .   S
    O1482  C1422     1.25226      .   S
    O1483  C1423     1.25226      .   S
    C82    C81       1.48318  1_655   S
    C1315  C1300     1.48318  1_455   S
    C1326  C1311     1.48318      .   S
    C1327  C1312     1.48318      .   S
    O511   C661      1.25313      .   S
    O510   C660      1.25313      .   S
    O514   C664      1.25313      .   S
    O515   C665      1.25313      .   S
    C724   O277      1.26140      .   S
    C721   O274      1.26140      .   S
    C720   O273      1.26140      .   S
    C725   O278      1.26140      .   S
    O415   C1419     1.22985      .   S
    O415   Zr120     2.17309      .   S
    O414   C1418     1.22985      .   S
    O414   Zr119     2.17309      .   S
    O418   C1422     1.22985      .   S
    O418   Zr123     2.17309      .   S
    O419   C1423     1.22985      .   S
    O419   Zr124     2.17309      .   S
    C660   O226      1.27282      .   S
    C664   O230      1.27282      .   S
    C661   O227      1.27282      .   S
    C665   O231      1.27282      .   S
    O1159  C741      1.25436      .   S
    O1160  C742      1.25436      .   S
    O1156  C738      1.25436      .   S
    O1155  C737      1.25436      .   S
    Zr119  O1110     2.23054  1_565   S
    Zr119  O1065     2.04619      .   S
    Zr120  O1111     2.23054      .   S
    Zr120  O1066     2.04619      .   S
    Zr123  O1114     2.23054      .   S
    Zr123  O1069     2.04619      .   S
    Zr124  O1115     2.23054  1_545   S
    Zr124  O1070     2.04619      .   S
    C738   O400      1.26166      .   S
    C742   O404      1.26166      .   S
    C741   O403      1.26166      .   S
    C737   O399      1.26166      .   S
    O577   Zr188     2.21144      .   S
    O576   Zr187     2.21144      .   S
    O573   Zr184     2.21144      .   S
    O572   Zr183     2.21144      .   S
    Zr168  O493      2.14679      .   S
    Zr168  O1084     2.23786      .   S
    Zr168  O217      2.07339      .   S
    Zr169  O494      2.14679      .   S
    Zr169  O1085     2.23786      .   S
    Zr169  O218      2.07339      .   S
    Zr165  O490      2.14679      .   S
    Zr165  O1081     2.23786      .   S
    Zr165  O214      2.07339      .   S
    Zr164  O489      2.14679      .   S
    Zr164  O1080     2.23786      .   S
    Zr164  O213      2.07339      .   S
    O1070  Zr188     2.03365      .   S
    O1065  Zr183     2.03365      .   S
    O1066  Zr184     2.03365      .   S
    O1069  Zr187     2.03365      .   S
    O494   C1370     1.25924      .   S
    O493   C1369     1.25924      .   S
    O490   C1366     1.25924      .   S
    O489   C1365     1.25924      .   S
    O277   Zr135     2.22163      .   S
    O278   Zr138     2.22163      .   S
    O274   Zr134     2.22163  1_565   S
    O273   Zr139     2.22163  1_545   S
    O226   Zr184     2.18437      .   S
    O227   Zr187     2.18437      .   S
    O230   Zr188     2.18437  1_565   S
    O231   Zr183     2.18437  1_545   S
    C1369  O1354     1.29680      .   S
    C1370  O1355     1.29680      .   S
    C1366  O1351     1.29680      .   S
    C1365  O1350     1.29680      .   S
    C81    N78       1.35627      .   S
    C81    C73       1.35551  1_455   S
    C1300  N1255     1.35627      .   S
    C1300  C1180     1.35551  1_655   S
    C1312  N1267     1.35627      .   S
    C1312  C1192     1.35551      .   S
    C1311  N1266     1.35627      .   S
    C1311  C1191     1.35551      .   S
    O404   Zr139     2.20954      .   S
    O403   Zr138     2.20954      .   S
    O399   Zr134     2.20954      .   S
    O400   Zr135     2.20954      .   S
    N78    N77       1.33553      .   S
    N1255  N1240     1.33553      .   S
    N1266  N1251     1.33553      .   S
    N1267  N1252     1.33553      .   S
    H260   O245      0.99990      .   S
    H264   O249      0.99990      .   S
    H265   O250      0.99990      .   S
    H261   O246      0.99990      .   S
    O246   Zr150     2.22841      .   S
    O245   Zr149     2.22841      .   S
    O250   Zr154     2.22841      .   S
    O249   Zr153     2.22841      .   S
    O202   Zr138     2.07127      .   S
    O202   Zr153     2.06761      .   S
    O199   Zr135     2.07127      .   S
    O199   Zr150     2.06761      .   S
    O198   Zr134     2.07127  1_565   S
    O198   Zr149     2.06761      .   S
    O203   Zr139     2.07127  1_545   S
    O203   Zr154     2.06761      .   S
    Zr184  O351      2.20252      .   S
    Zr184  O372      2.21385      .   S
    Zr184  O1052     2.03960      .   S
    Zr187  O354      2.20252      .   S
    Zr187  O371      2.21385      .   S
    Zr187  O1055     2.03960      .   S
    Zr183  O350      2.20252      .   S
    Zr183  O18       2.21385  1_565   S
    Zr183  O1051     2.03960      .   S
    Zr188  O355      2.20252      .   S
    Zr188  O360      2.21385  1_545   S
    Zr188  O1056     2.03960      .   S
    O805   C1468     1.34126      .   S
    O801   C1464     1.34126      .   S
    O804   C1467     1.34126      .   S
    O800   C1463     1.34126      .   S
    C73    H74       0.94816      .   S
    C73    C49       1.39295  1_655   S
    C1180  H1195     0.94816      .   S
    C1180  C834      1.39295  1_455   S
    C1192  H1207     0.94816      .   S
    C1192  C846      1.39295      .   S
    C1191  H1206     0.94816      .   S
    C1191  C845      1.39295      .   S
    Zr139  O218      2.07096      .   S
    Zr139  O327      2.21872  1_565   S
    Zr139  O547      2.20215      .   S
    Zr138  O217      2.07096      .   S
    Zr138  O15       2.21872      .   S
    Zr138  O546      2.20215      .   S
    Zr135  O214      2.07096      .   S
    Zr135  O315      2.21872      .   S
    Zr135  O543      2.20215      .   S
    Zr134  O213      2.07096      .   S
    Zr134  O326      2.21872  1_545   S
    Zr134  O542      2.20215      .   S
    O1085  H1100     1.00052      .   S
    O1084  H1099     1.00052      .   S
    O1081  H1096     1.00052      .   S
    O1080  H1095     1.00052      .   S
    N77    C49       1.37384      .   S
    N1252  C846      1.37384      .   S
    N1240  C834      1.37384      .   S
    N1251  C845      1.37384      .   S
    C1468  O562      1.29640      .   S
    C1463  O557      1.29640      .   S
    C1464  O558      1.29640      .   S
    C1467  O561      1.29640      .   S
    O354   C606      1.27742      .   S
    O350   C602      1.27742      .   S
    O355   C607      1.27742      .   S
    O351   C603      1.27742      .   S
    C49    C57       1.48314      .   S
    C845   C965      1.48314      .   S
    C846   C966      1.48314      .   S
    C834   C954      1.48314      .   S
    O561   Zr153     2.16659      .   S
    O562   Zr154     2.16659      .   S
    O558   Zr150     2.16659      .   S
    O557   Zr149     2.16659      .   S
    O15    C45       1.26311      .   S
    O315   C762      1.26311      .   S
    O326   C773      1.26311      .   S
    O327   C774      1.26311      .   S
    O1381  C786      1.28140      .   S
    O1380  C785      1.28140      .   S
    O1385  C790      1.28140      .   S
    O1384  C789      1.28140      .   S
    O18    C46       1.26042      .   S
    O371   C380      1.26042      .   S
    O372   C381      1.26042      .   S
    O360   C777      1.26042      .   S
    O1056  Zr109     2.05329  1_545   S
    O1055  Zr108     2.05329      .   S
    O1052  Zr105     2.05329      .   S
    O1051  Zr104     2.05329  1_565   S
    Zr150  O445      2.23529      .   S
    Zr150  O343      2.17418      .   S
    Zr149  O444      2.23529  1_565   S
    Zr149  O344      2.17418      .   S
    Zr153  O448      2.23529      .   S
    Zr153  O332      2.17418      .   S
    Zr154  O449      2.23529  1_545   S
    Zr154  O331      2.17418      .   S
    O542   C752      1.25115      .   S
    O543   C753      1.25115      .   S
    O546   C756      1.25115      .   S
    O547   C757      1.25115      .   S
    C1438  N1408     1.34355      .   S
    C1438  O622      1.27664      .   S
    C1437  N1407     1.34355      .   S
    C1437  O621      1.27664      .   S
    C1434  N1404     1.34355      .   S
    C1434  O618      1.27664      .   S
    C1433  N1403     1.34355      .   S
    C1433  O617      1.27664      .   S
    N1404  C1449     1.47292      .   S
    N1403  C1448     1.47292      .   S
    N1407  C1452     1.47292      .   S
    N1408  C1453     1.47292      .   S
    C45    O20       1.26863      .   S
    C45    C37       1.46458      .   S
    C774   O391      1.26863      .   S
    C774   C654      1.46458      .   S
    C762   O375      1.26863      .   S
    C762   C642      1.46458      .   S
    C773   O390      1.26863      .   S
    C773   C653      1.46458      .   S
    N63    C37       1.37856      .   S
    N63    N72       1.33892      .   S
    N1030  C642      1.37856      .   S
    N1030  N1165     1.33892      .   S
    N1042  C654      1.37856      .   S
    N1042  N1177     1.33892      .   S
    N1041  C653      1.37856      .   S
    N1041  N1176     1.33892      .   S
    C606   O433      1.24178      .   S
    C606   C681      1.49278      .   S
    C603   O430      1.24178      .   S
    C603   C678      1.49278      .   S
    C602   O429      1.24178      .   S
    C602   C677      1.49278      .   S
    C607   O434      1.24178      .   S
    C607   C682      1.49278      .   S
    Zr105  O588      2.25084      .   S
    Zr104  O587      2.25084      .   S
    Zr108  O591      2.25084      .   S
    Zr109  O592      2.25084      .   S
    O445   H460      0.99793      .   S
    O444   H459      0.99793      .   S
    O449   H464      0.99793      .   S
    O448   H463      0.99793      .   S
    O622   C790      1.27158      .   S
    O621   C789      1.27158      .   S
    O618   C786      1.27158      .   S
    O617   C785      1.27158      .   S
    C46    O14       1.25764      .   S
    C46    C55       1.41764      .   S
    C777   O300      1.25764      .   S
    C777   C924      1.41764      .   S
    C381   O312      1.25764      .   S
    C381   C936      1.41764      .   S
    C380   O311      1.25764      .   S
    C380   C935      1.41764      .   S
    C37    C60       1.37131      .   S
    C654   C1011     1.37131      .   S
    C653   C1010     1.37131      .   S
    C642   C999      1.37131      .   S
    C752   O587      1.25874      .   S
    C752   C692      1.49278      .   S
    C753   O588      1.25874      .   S
    C753   C693      1.49278      .   S
    C756   O591      1.25874      .   S
    C756   C696      1.49278      .   S
    C757   O592      1.25874      .   S
    C757   C697      1.49278      .   S
    N72    C80       1.36668      .   S
    N1165  C1286     1.36668      .   S
    N1177  C1297     1.36668      .   S
    N1176  C1296     1.36668      .   S
    C57    O36       1.28769  1_455   S
    C57    O26       1.28267      .   S
    C966   O639      1.28769      .   S
    C966   O481      1.28267      .   S
    C965   O638      1.28769      .   S
    C965   O480      1.28267      .   S
    C954   O627      1.28769  1_655   S
    C954   O469      1.28267      .   S
    N50    C55       1.41969      .   S
    N50    N51       1.42025      .   S
    N861   C936      1.41969      .   S
    N861   N876      1.42025      .   S
    N860   C935      1.41969      .   S
    N860   N875      1.42025      .   S
    N849   C924      1.41969      .   S
    N849   N864      1.42025      .   S
    H1231  C1216     0.95047      .   S
    H1230  C1215     0.95047      .   S
    H1234  C1219     0.95047      .   S
    H1235  C1220     0.95047      .   S
    H829   C814      0.95110      .   S
    H828   C813      0.95110      .   S
    H825   C810      0.95110      .   S
    H824   C809      0.95110      .   S
    C682   C1220     1.34858      .   S
    C682   N507      1.32464      .   S
    C681   C1219     1.34858      .   S
    C681   N506      1.32464      .   S
    C678   C1216     1.34858      .   S
    C678   N503      1.32464      .   S
    C677   C1215     1.34858      .   S
    C677   N502      1.32464      .   S
    C55    C53       1.41901      .   S
    C924   C894      1.41901      .   S
    C936   C906      1.41901      .   S
    C935   C905      1.41901      .   S
    C1215  C974      1.38746      .   S
    C1220  C979      1.38746      .   S
    C1219  C978      1.38746      .   S
    C1216  C975      1.38746      .   S
    O26    Zr5       2.19862      .   S
    O469   Zr159     2.19862      .   S
    O480   Zr170     2.19862      .   S
    O481   Zr171     2.19862      .   S
    C810   C693      1.38458      .   S
    C810   C1336     1.35892      .   S
    C814   C697      1.38458      .   S
    C814   C1340     1.35892      .   S
    C813   C696      1.38458      .   S
    C813   C1339     1.35892      .   S
    C809   C692      1.38458      .   S
    C809   C1335     1.35892      .   S
    C692   N1276     1.32159      .   S
    C697   N1281     1.32159      .   S
    C696   N1280     1.32159      .   S
    C693   N1277     1.32159      .   S
    N51    C52       1.42040      .   S
    N876   C891      1.42040      .   S
    N875   C890      1.42040      .   S
    N864   C879      1.42040      .   S
    C60    C80       1.38039      .   S
    C60    H61       0.94928      .   S
    C999   C1286     1.38039      .   S
    C999   H1014     0.94928      .   S
    C1011  C1297     1.38039      .   S
    C1011  H1026     0.94928      .   S
    C1010  C1296     1.38039      .   S
    C1010  H1025     0.94928      .   S
    C80    C70       1.47443      .   S
    C1296  C1146     1.47443      .   S
    C1286  C1135     1.47443      .   S
    C1297  C1147     1.47443      .   S
    O332   C1317     1.28388      .   S
    O331   C1316     1.28388      .   S
    O343   C1328     1.28388      .   S
    O344   C1329     1.28388      .   S
    N502   N989      1.31686      .   S
    N503   N990      1.31686      .   S
    N506   N993      1.31686      .   S
    N507   N994      1.31686      .   S
    O41    C70       1.26099      .   S
    O41    Zr2       2.24497  1_455   S
    O713   C1146     1.26099      .   S
    O713   Zr125     2.24497      .   S
    O714   C1147     1.26099      .   S
    O714   Zr126     2.24497      .   S
    O702   C1135     1.26099      .   S
    O702   Zr114     2.24497  1_655   S
    O523   C1316     1.27840  1_565   S
    O524   C1317     1.27840      .   S
    O535   C1328     1.27840      .   S
    O536   C1329     1.27840  1_545   S
    C978   N993      1.31076      .   S
    C978   C666      1.49981      .   S
    C979   N994      1.31076      .   S
    C979   C667      1.49981      .   S
    C975   N990      1.31076      .   S
    C975   C663      1.49981      .   S
    C974   N989      1.31076      .   S
    C974   C662      1.49981      .   S
    C53    C52       1.42021      .   S
    C53    H54       0.95166      .   S
    C906   C891      1.42021      .   S
    C906   H921      0.95166      .   S
    C905   C890      1.42021      .   S
    C905   H920      0.95166      .   S
    C894   C879      1.42021      .   S
    C894   H909      0.95166      .   S
    C1340  C727      1.50444      .   S
    C1340  N949      1.33941      .   S
    C1335  C722      1.50444      .   S
    C1335  N944      1.33941      .   S
    C1339  C726      1.50444      .   S
    C1339  N948      1.33941      .   S
    C1336  C723      1.50444      .   S
    C1336  N945      1.33941      .   S
    H69    O68       1.00159      .   S
    H1132  O1117     1.00159      .   S
    H1120  O1105     1.00159      .   S
    H1131  O1116     1.00159      .   S
    N1280  N948      1.32020      .   S
    N1281  N949      1.32020      .   S
    N1277  N945      1.32020      .   S
    N1276  N944      1.32020      .   S
    C1135  O567      1.27529      .   S
    O291   C723      1.26773      .   S
    O295   C727      1.26773      .   S
    C70    O32       1.27529      .   S
    C1147  O579      1.27529      .   S
    O294   C726      1.26773      .   S
    C1146  O578      1.27529      .   S
    O290   C722      1.26773      .   S
    C52    C43       1.45872      .   S
    C879   C732      1.45872      .   S
    C890   C743      1.45872      .   S
    C891   C744      1.45872      .   S
    O1473  C1413     1.25226      .   S
    O1485  C1425     1.25226      .   S
    O1484  C1424     1.25226      .   S
    O96    C92       1.25226      .   S
    C1316  C1301     1.48318      .   S
    C1317  C1302     1.48318      .   S
    C1328  C1313     1.48318      .   S
    C1329  C1314     1.48318      .   S
    O513   C663      1.25313      .   S
    O516   C666      1.25313      .   S
    O517   C667      1.25313      .   S
    O512   C662      1.25313      .   S
    C722   O275      1.26140      .   S
    C723   O276      1.26140      .   S
    C726   O279      1.26140      .   S
    C727   O280      1.26140      .   S
    O22    C92       1.22985      .   S
    O22    Zr2       2.17309      .   S
    O421   C1425     1.22985      .   S
    O421   Zr126     2.17309      .   S
    O409   C1413     1.22985      .   S
    O409   Zr114     2.17309      .   S
    O420   C1424     1.22985      .   S
    O420   Zr125     2.17309      .   S
    C662   O228      1.27282      .   S
    C663   O229      1.27282      .   S
    C666   O232      1.27282      .   S
    C667   O99       1.27282      .   S
    O71    C43       1.25436      .   S
    O1161  C743      1.25436      .   S
    O1162  C744      1.25436      .   S
    O1150  C732      1.25436      .   S
    Zr2    O68       2.23054      .   S
    Zr2    O65       2.04619  1_655   S
    Zr114  O1105     2.23054      .   S
    Zr114  O1061     2.04619  1_455   S
    Zr125  O1116     2.23054      .   S
    Zr125  O1071     2.04619      .   S
    Zr126  O1117     2.23054      .   S
    Zr126  O1072     2.04619      .   S
    C43    O21       1.26166      .   S
    C732   O394      1.26166      .   S
    C743   O405      1.26166      .   S
    C744   O406      1.26166      .   S
    O32    Zr6       2.21144      .   S
    O578   Zr189     2.21144      .   S
    O567   Zr178     2.21144      .   S
    O579   Zr190     2.21144      .   S
    Zr5    O27       2.14679      .   S
    Zr5    O66       2.23786      .   S
    Zr5    O8        2.07339  1_455   S
    Zr159  O484      2.14679      .   S
    Zr159  O1075     2.23786      .   S
    Zr159  O208      2.07339  1_655   S
    Zr170  O233      2.14679      .   S
    Zr170  O1086     2.23786      .   S
    Zr170  O219      2.07339      .   S
    Zr171  O234      2.14679      .   S
    Zr171  O1087     2.23786      .   S
    Zr171  O220      2.07339      .   S
    O65    Zr6       2.03365      .   S
    O1071  Zr189     2.03365      .   S
    O1072  Zr190     2.03365      .   S
    O1061  Zr178     2.03365      .   S
    O27    C85       1.25924      .   S
    O484   C1360     1.25924      .   S
    O233   C1371     1.25924      .   S
    O234   C1372     1.25924      .   S
    O279   Zr129     2.22163      .   S
    O275   Zr141     2.22163      .   S
    O276   Zr3       2.22163      .   S
    O280   Zr140     2.22163      .   S
    O232   Zr190     2.18437      .   S
    O228   Zr178     2.18437      .   S
    O229   Zr189     2.18437      .   S
    O99    Zr6       2.18437      .   S
    C85    O84       1.29680      .   S
    C1371  O1356     1.29680      .   S
    C1360  O1345     1.29680      .   S
    C1372  O1357     1.29680      .   S
    C1314  N1269     1.35627      .   S
    C1314  C1194     1.35551      .   S
    C1302  N1257     1.35627      .   S
    C1302  C1182     1.35551      .   S
    C1301  N1256     1.35627      .   S
    C1301  C1181     1.35551      .   S
    C1313  N1268     1.35627      .   S
    C1313  C1193     1.35551      .   S
    O21    Zr3       2.20954      .   S
    O406   Zr141     2.20954      .   S
    O394   Zr129     2.20954      .   S
    O405   Zr140     2.20954      .   S
    N1257  N1242     1.33553      .   S
    N1256  N1241     1.33553      .   S
    N1268  N1253     1.33553      .   S
    N1269  N1254     1.33553      .   S
    H11    O10       0.99990      .   S
    H267   O252      0.99990      .   S
    H266   O251      0.99990      .   S
    H255   O240      0.99990      .   S
    O10    Zr4       2.22841  1_455   S
    O252   Zr156     2.22841      .   S
    O240   Zr144     2.22841  1_655   S
    O251   Zr155     2.22841      .   S
    O7     Zr3       2.07127      .   S
    O7     Zr4       2.06761      .   S
    O205   Zr141     2.07127      .   S
    O205   Zr156     2.06761      .   S
    O204   Zr140     2.07127      .   S
    O204   Zr155     2.06761      .   S
    O193   Zr129     2.07127      .   S
    O193   Zr144     2.06761      .   S
    Zr6    O17       2.20252      .   S
    Zr6    O361      2.21385      .   S
    Zr6    O64       2.03960      .   S
    Zr189  O356      2.20252      .   S
    Zr189  O373      2.21385      .   S
    Zr189  O1057     2.03960      .   S
    Zr178  O345      2.20252      .   S
    Zr178  O374      2.21385      .   S
    Zr178  O1046     2.03960      .   S
    Zr190  O357      2.20252      .   S
    Zr190  O362      2.21385      .   S
    Zr190  O1058     2.03960      .   S
    O88    C95       1.34126  1_455   S
    O795   C1458     1.34126  1_655   S
    O1394  C1469     1.34126      .   S
    O1395  C1470     1.34126      .   S
    C1194  H1209     0.94816  1_565   S
    C1194  C848      1.39295      .   S
    C1193  H1208     0.94816      .   S
    C1193  C847      1.39295      .   S
    C1181  H1196     0.94816  1_545   S
    C1181  C835      1.39295      .   S
    C1182  H1197     0.94816      .   S
    C1182  C836      1.39295      .   S
    Zr3    O8        2.07096      .   S
    Zr3    O328      2.21872      .   S
    Zr3    O30       2.20215      .   S
    Zr141  O220      2.07096      .   S
    Zr141  O329      2.21872      .   S
    Zr141  O549      2.20215      .   S
    Zr129  O208      2.07096      .   S
    Zr129  O317      2.21872      .   S
    Zr129  O537      2.20215      .   S
    Zr140  O219      2.07096      .   S
    Zr140  O316      2.21872      .   S
    Zr140  O548      2.20215      .   S
    O66    H67       1.00052      .   S
    O1087  H1102     1.00052      .   S
    O1086  H1101     1.00052      .   S
    O1075  H1090     1.00052      .   S
    N1253  C847      1.37384      .   S
    N1241  C835      1.37384      .   S
    N1242  C836      1.37384      .   S
    N1254  C848      1.37384      .   S
    C95    O31       1.29640      .   S
    C1458  O552      1.29640      .   S
    C1469  O563      1.29640      .   S
    C1470  O564      1.29640      .   S
    O17    C34       1.27742      .   S
    O345   C597      1.27742      .   S
    O356   C608      1.27742      .   S
    O357   C609      1.27742      .   S
    C835   C955      1.48314      .   S
    C836   C956      1.48314      .   S
    C847   C967      1.48314      .   S
    C848   C968      1.48314      .   S
    O31    Zr4       2.16659      .   S
    O552   Zr144     2.16659      .   S
    O564   Zr156     2.16659      .   S
    O563   Zr155     2.16659      .   S
    O328   C775      1.26311      .   S
    O329   C776      1.26311      .   S
    O316   C763      1.26311      .   S
    O317   C764      1.26311      .   S
    O86    C87       1.28140      .   S
    O1386  C791      1.28140      .   S
    O1375  C1390     1.28140      .   S
    O1387  C792      1.28140      .   S
    O361   C778      1.26042      .   S
    O373   C382      1.26042      .   S
    O374   C383      1.26042      .   S
    O362   C779      1.26042      .   S
    O64    Zr19      2.05329      .   S
    O1046  Zr97      2.05329      .   S
    O1057  Zr110     2.05329      .   S
    O1058  Zr111     2.05329      .   S
    Zr4    O24       2.23529      .   S
    Zr4    O338      2.17418      .   S
    Zr155  O450      2.23529      .   S
    Zr155  O334      2.17418      .   S
    Zr156  O451      2.23529      .   S
    Zr156  O333      2.17418      .   S
    Zr144  O439      2.23529      .   S
    Zr144  O337      2.17418      .   S
    O30    C44       1.25115      .   S
    O537   C747      1.25115      .   S
    O548   C758      1.25115      .   S
    O549   C759      1.25115      .   S
    C93    N89       1.34355      .   S
    C93    O35       1.27664      .   S
    C1439  N1409     1.34355      .   S
    C1439  O623      1.27664      .   S
    C1440  N1410     1.34355      .   S
    C1440  O624      1.27664      .   S
    C1428  N1398     1.34355      .   S
    C1428  O612      1.27664      .   S
    N89    C94       1.47292      .   S
    N1409  C1454     1.47292      .   S
    N1398  C1443     1.47292      .   S
    N1410  C1455     1.47292      .   S
    C763   O172      1.26863      .   S
    C763   C643      1.46458      .   S
    C776   O393      1.26863      .   S
    C776   C656      1.46458      .   S
    C764   O173      1.26863      .   S
    C764   C644      1.46458      .   S
    C775   O392      1.26863      .   S
    C775   C655      1.46458      .   S
    N1044  C656      1.37856      .   S
    N1044  N1179     1.33892      .   S
    N1043  C655      1.37856      .   S
    N1043  N1178     1.33892      .   S
    N1032  C644      1.37856      .   S
    N1032  N1167     1.33892      .   S
    N1031  C643      1.37856      .   S
    N1031  N1166     1.33892      .   S
    C609   O436      1.24178      .   S
    C609   C684      1.49278      .   S
    C34    O23       1.24178      .   S
    C34    C39       1.49278      .   S
    C597   O424      1.24178      .   S
    C597   C672      1.49278      .   S
    C608   O435      1.24178      .   S
    C608   C683      1.49278      .   S
    Zr19   O33       2.25084  1_455   S
    Zr97   O582      2.25084  1_655   S
    Zr110  O593      2.25084      .   S
    Zr111  O594      2.25084      .   S
    O24    H25       0.99793      .   S
    O451   H466      0.99793      .   S
    O439   H454      0.99793      .   S
    O450   H465      0.99793      .   S
    O35    C87       1.27158      .   S
    O624   C792      1.27158      .   S
    O623   C791      1.27158      .   S
    O612   C1390     1.27158      .   S
    C778   O301      1.25764      .   S
    C778   C925      1.41764      .   S
    C779   O302      1.25764      .   S
    C779   C926      1.41764      .   S
    C382   O313      1.25764      .   S
    C382   C937      1.41764      .   S
    C383   O314      1.25764      .   S
    C383   C938      1.41764      .   S
    C656   C1013     1.37131      .   S
    C655   C1012     1.37131      .   S
    C644   C1001     1.37131      .   S
    C643   C1000     1.37131      .   S
    C758   O593      1.25874      .   S
    C758   C698      1.49278      .   S
    C44    O33       1.25874      .   S
    C44    C40       1.49278      .   S
    C759   O594      1.25874      .   S
    C759   C699      1.49278      .   S
    C747   O582      1.25874      .   S
    C747   C687      1.49278      .   S
    N1179  C1299     1.36668      .   S
    N1178  C1298     1.36668      .   S
    N1167  C1288     1.36668      .   S
    N1166  C1287     1.36668      .   S
    C956   O629      1.28769      .   S
    C956   O471      1.28267      .   S
    C955   O628      1.28769  1_545   S
    C955   O470      1.28267      .   S
    C967   O640      1.28769      .   S
    C967   O482      1.28267      .   S
    C968   O641      1.28769  1_565   S
    C968   O483      1.28267      .   S
    N863   C938      1.41969      .   S
    N863   N878      1.42025      .   S
    N850   C925      1.41969      .   S
    N850   N865      1.42025      .   S
    N851   C926      1.41969      .   S
    N851   N866      1.42025      .   S
    N862   C937      1.41969      .   S
    N862   N877      1.42025      .   S
    H76    C75       0.95047      .   S
    H1237  C1222     0.95047      .   S
    H1236  C1221     0.95047      .   S
    H1225  C1210     0.95047      .   S
    H819   C384      0.95110      .   S
    H830   C815      0.95110      .   S
    H48    C47       0.95110      .   S
    H831   C816      0.95110      .   S
    C39    C75       1.34858      .   S
    C39    N62       1.32464      .   S
    C672   C1210     1.34858      .   S
    C672   N497      1.32464      .   S
    C683   C1221     1.34858      .   S
    C683   N508      1.32464      .   S
    C684   C1222     1.34858      .   S
    C684   N1027     1.32464      .   S
    C938   C908      1.41901      .   S
    C937   C907      1.41901      .   S
    C926   C896      1.41901      .   S
    C925   C895      1.41901      .   S
    C75    C58       1.38746      .   S
    C1210  C969      1.38746      .   S
    C1222  C981      1.38746      .   S
    C1221  C980      1.38746      .   S
    O482   Zr90      2.19862      .   S
    O483   Zr91      2.19862      .   S
    O470   Zr160     2.19862      .   S
    O471   Zr161     2.19862      .   S
    C47    C40       1.38458      .   S
    C47    C83       1.35892      .   S
    C384   C687      1.38458      .   S
    C384   C1330     1.35892      .   S
    C816   C699      1.38458      .   S
    C816   C1342     1.35892      .   S
    C815   C698      1.38458      .   S
    C815   C1341     1.35892      .   S
    C699   N1283     1.32159      .   S
    C687   N1271     1.32159      .   S
    C698   N1282     1.32159      .   S
    C40    N79       1.32159      .   S
    N878   C893      1.42040      .   S
    N877   C892      1.42040      .   S
    N866   C881      1.42040      .   S
    N865   C880      1.42040      .   S
    C1013  C1299     1.38039      .   S
    C1013  H496      0.94928      .   S
    C1012  C1298     1.38039      .   S
    C1012  H495      0.94928      .   S
    C1001  C1288     1.38039      .   S
    C1001  H1016     0.94928      .   S
    C1000  C1287     1.38039      .   S
    C1000  H1015     0.94928      .   S
    C1299  C1149     1.47443      .   S
    C1287  C1136     1.47443      .   S
    C1298  C1148     1.47443      .   S
    C1288  C1137     1.47443      .   S
    O334   C1319     1.28388      .   S
    O338   C1323     1.28388  1_655   S
    O337   C1322     1.28388  1_455   S
    O333   C1318     1.28388      .   S
    N62    N59       1.31686      .   S
    N1027  N996      1.31686      .   S
    N497   N984      1.31686      .   S
    N508   N995      1.31686      .   S
    O704   C1137     1.26099      .   S
    O704   Zr116     2.24497      .   S
    O715   C1148     1.26099      .   S
    O715   Zr127     2.24497      .   S
    O716   C1149     1.26099      .   S
    O716   Zr128     2.24497      .   S
    O703   C1136     1.26099      .   S
    O703   Zr115     2.24497      .   S
    O529   C1322     1.27840      .   S
    O525   C1318     1.27840      .   S
    O530   C1323     1.27840      .   S
    O526   C1319     1.27840      .   S
    C58    N59       1.31076      .   S
    C58    C38       1.49981      .   S
    C980   N995      1.31076      .   S
    C980   C668      1.49981      .   S
    C981   N996      1.31076      .   S
    C981   C669      1.49981      .   S
    C969   N984      1.31076      .   S
    C969   C657      1.49981      .   S
    C896   C881      1.42021      .   S
    C896   H911      0.95166      .   S
    C908   C893      1.42021      .   S
    C908   H923      0.95166      .   S
    C895   C880      1.42021      .   S
    C895   H910      0.95166      .   S
    C907   C892      1.42021      .   S
    C907   H922      0.95166      .   S
    C83    C42       1.50444      .   S
    C83    N56       1.33941      .   S
    C1330  C717      1.50444      .   S
    C1330  N939      1.33941      .   S
    C1341  C728      1.50444      .   S
    C1341  N950      1.33941      .   S
    C1342  C729      1.50444      .   S
    C1342  N951      1.33941      .   S
    H1121  O1106     1.00159      .   S
    H1122  O1107     1.00159      .   S
    H1133  O1118     1.00159      .   S
    H1134  O1119     1.00159      .   S
    N79    N56       1.32020      .   S
    N1271  N939      1.32020      .   S
    N1282  N950      1.32020      .   S
    N1283  N951      1.32020      .   S
    C1149  O581      1.27529      .   S
    O13    C42       1.26773      .   S
    C1136  O568      1.27529      .   S
    C1137  O569      1.27529      .   S
    C1148  O580      1.27529      .   S
    O285   C717      1.26773      .   S
    O296   C728      1.26773      .   S
    O297   C729      1.26773      .   S
    C880   C733      1.45872      .   S
    C881   C734      1.45872      .   S
    C892   C745      1.45872      .   S
    C893   C746      1.45872      .   S
    O1486  C1426     1.25226      .   S
    O1475  C1415     1.25226      .   S
    O1474  C1414     1.25226      .   S
    O1487  C1427     1.25226      .   S
    C1318  C1303     1.48318      .   S
    C1319  C1304     1.48318      .   S
    C1322  C1307     1.48318  1_655   S
    C1323  C1308     1.48318  1_455   S
    O28    C38       1.25313      .   S
    O518   C668      1.25313      .   S
    O519   C669      1.25313      .   S
    O237   C657      1.25313      .   S
    C728   O281      1.26140      .   S
    C717   O270      1.26140      .   S
    C42    O12       1.26140      .   S
    C729   O282      1.26140      .   S
    O422   C1426     1.22985      .   S
    O422   Zr127     2.17309      .   S
    O423   C1427     1.22985      .   S
    O423   Zr128     2.17309      .   S
    O410   C1414     1.22985      .   S
    O410   Zr115     2.17309      .   S
    O411   C1415     1.22985      .   S
    O411   Zr116     2.17309      .   S
    C38    O9        1.27282      .   S
    C669   O101      1.27282      .   S
    C657   O223      1.27282      .   S
    C668   O100      1.27282      .   S
    O1152  C734      1.25436      .   S
    O1163  C745      1.25436      .   S
    O1151  C733      1.25436      .   S
    O1164  C746      1.25436      .   S
    Zr128  O1119     2.23054  1_545   S
    Zr128  O1074     2.04619      .   S
    Zr115  O1106     2.23054  1_565   S
    Zr115  O1045     2.04619      .   S
    Zr116  O1107     2.23054      .   S
    Zr116  O1062     2.04619      .   S
    Zr127  O1118     2.23054      .   S
    Zr127  O1073     2.04619      .   S
    C733   O395      1.26166      .   S
    C734   O396      1.26166      .   S
    C745   O407      1.26166      .   S
    C746   O408      1.26166      .   S
    O569   Zr180     2.21144      .   S
    O580   Zr191     2.21144      .   S
    O581   Zr192     2.21144      .   S
    O568   Zr179     2.21144      .   S
    Zr161  O486      2.14679      .   S
    Zr161  O1077     2.23786      .   S
    Zr161  O210      2.07339      .   S
    Zr160  O485      2.14679      .   S
    Zr160  O1076     2.23786      .   S
    Zr160  O209      2.07339      .   S
    Zr90   O235      2.14679      .   S
    Zr90   O1088     2.23786      .   S
    Zr90   O221      2.07339      .   S
    Zr91   O236      2.14679      .   S
    Zr91   O1089     2.23786      .   S
    Zr91   O222      2.07339      .   S
    O1045  Zr179     2.03365      .   S
    O1062  Zr180     2.03365      .   S
    O1073  Zr191     2.03365      .   S
    O1074  Zr192     2.03365      .   S
    O485   C1361     1.25924      .   S
    O486   C1362     1.25924      .   S
    O235   C1373     1.25924      .   S
    O236   C1374     1.25924      .   S
    O12    Zr143     2.22163  1_545   S
    O270   Zr130     2.22163  1_565   S
    O282   Zr142     2.22163      .   S
    O281   Zr131     2.22163      .   S
    O9     Zr180     2.18437      .   S
    O101   Zr179     2.18437  1_545   S
    O100   Zr192     2.18437  1_565   S
    O223   Zr191     2.18437      .   S
    C1361  O1346     1.29680      .   S
    C1362  O1347     1.29680      .   S
    C1373  O1358     1.29680      .   S
    C1374  O1359     1.29680      .   S
    C1307  N1262     1.35627      .   S
    C1307  C1187     1.35551  1_455   S
    C1304  N1259     1.35627      .   S
    C1304  C1184     1.35551      .   S
    C1308  N1263     1.35627      .   S
    C1308  C1188     1.35551  1_655   S
    C1303  N1258     1.35627      .   S
    C1303  C1183     1.35551      .   S
    O408   Zr143     2.20954      .   S
    O407   Zr142     2.20954      .   S
    O396   Zr131     2.20954      .   S
    O395   Zr130     2.20954      .   S
    N1258  N1243     1.33553      .   S
    N1259  N1244     1.33553      .   S
    N1262  N1247     1.33553      .   S
    N1263  N1248     1.33553      .   S
    H256   O241      0.99990      .   S
    H257   O242      0.99990      .   S
    H268   O253      0.99990      .   S
    H269   O254      0.99990      .   S
    O254   Zr158     2.22841      .   S
    O253   Zr157     2.22841      .   S
    O241   Zr145     2.22841      .   S
    O242   Zr146     2.22841      .   S
    O206   Zr142     2.07127      .   S
    O206   Zr157     2.06761      .   S
    O195   Zr131     2.07127      .   S
    O195   Zr146     2.06761      .   S
    O194   Zr130     2.07127  1_565   S
    O194   Zr145     2.06761      .   S
    O207   Zr143     2.07127  1_545   S
    O207   Zr158     2.06761      .   S
    Zr179  O346      2.20252      .   S
    Zr179  O363      2.21385  1_565   S
    Zr179  O1047     2.03960      .   S
    Zr180  O347      2.20252      .   S
    Zr180  O368      2.21385      .   S
    Zr180  O1048     2.03960      .   S
    Zr191  O358      2.20252      .   S
    Zr191  O367      2.21385      .   S
    Zr191  O1059     2.03960      .   S
    Zr192  O359      2.20252      .   S
    Zr192  O364      2.21385  1_545   S
    Zr192  O1060     2.03960      .   S
    O797   C1460     1.34126      .   S
    O796   C1459     1.34126      .   S
    O1396  C1471     1.34126      .   S
    O1397  C1472     1.34126      .   S
    C1183  H1198     0.94816      .   S
    C1183  C837      1.39295      .   S
    C1184  H1199     0.94816      .   S
    C1184  C838      1.39295      .   S
    C1187  H1202     0.94816      .   S
    C1187  C841      1.39295  1_655   S
    C1188  H1203     0.94816      .   S
    C1188  C842      1.39295  1_455   S
    Zr143  O222      2.07096      .   S
    Zr143  O323      2.21872  1_565   S
    Zr143  O551      2.20215      .   S
    Zr142  O221      2.07096      .   S
    Zr142  O318      2.21872      .   S
    Zr142  O550      2.20215      .   S
    Zr131  O210      2.07096      .   S
    Zr131  O319      2.21872      .   S
    Zr131  O539      2.20215      .   S
    Zr130  O209      2.07096      .   S
    Zr130  O322      2.21872  1_545   S
    Zr130  O538      2.20215      .   S
    O1088  H1103     1.00052      .   S
    O1089  H1104     1.00052      .   S
    O1077  H1092     1.00052      .   S
    O1076  H1091     1.00052      .   S
    N1243  C837      1.37384      .   S
    N1244  C838      1.37384      .   S
    N1247  C841      1.37384      .   S
    N1248  C842      1.37384      .   S
    C1472  O566      1.29640      .   S
    C1471  O565      1.29640      .   S
    C1460  O554      1.29640      .   S
    C1459  O553      1.29640      .   S
    O359   C611      1.27742      .   S
    O358   C610      1.27742      .   S
    O347   C599      1.27742      .   S
    O346   C598      1.27742      .   S
    C837   C957      1.48314      .   S
    C838   C958      1.48314      .   S
    C841   C961      1.48314      .   S
    C842   C962      1.48314      .   S
    O565   Zr157     2.16659      .   S
    O566   Zr158     2.16659      .   S
    O554   Zr146     2.16659      .   S
    O553   Zr145     2.16659      .   S
    O323   C770      1.26311      .   S
    O322   C769      1.26311      .   S
    O319   C766      1.26311      .   S
    O318   C765      1.26311      .   S
    O1377  C1392     1.28140      .   S
    O1376  C1391     1.28140      .   S
    O1388  C793      1.28140      .   S
    O1389  C794      1.28140      .   S
    O368   C377      1.26042      .   S
    O364   C781      1.26042      .   S
    O367   C376      1.26042      .   S
    O363   C780      1.26042      .   S
    O1048  Zr1       2.05329      .   S
    O1059  Zr112     2.05329      .   S
    O1060  Zr113     2.05329  1_545   S
    O1047  Zr98      2.05329  1_565   S
    Zr158  O453      2.23529  1_545   S
    Zr157  O452      2.23529      .   S
    Zr146  O441      2.23529      .   S
    Zr145  O440      2.23529  1_565   S
    O538   C748      1.25115      .   S
    O551   C761      1.25115      .   S
    O539   C749      1.25115      .   S
    O550   C760      1.25115      .   S
    C1442  N1412     1.34355      .   S
    C1442  O626      1.27664      .   S
    C1441  N1411     1.34355      .   S
    C1441  O625      1.27664      .   S
    C1430  N1400     1.34355      .   S
    C1430  O614      1.27664      .   S
    C1429  N1399     1.34355      .   S
    C1429  O613      1.27664      .   S
    N1399  C1444     1.47292      .   S
    N1412  C1457     1.47292      .   S
    N1411  C1456     1.47292      .   S
    N1400  C1445     1.47292      .   S
    C770   O387      1.26863      .   S
    C770   C650      1.46458      .   S
    C769   O386      1.26863      .   S
    C769   C649      1.46458      .   S
    C766   O175      1.26863      .   S
    C766   C646      1.46458      .   S
    C765   O174      1.26863      .   S
    C765   C645      1.46458      .   S
    N1033  C645      1.37856      .   S
    N1033  N1168     1.33892      .   S
    N1034  C646      1.37856      .   S
    N1034  N1169     1.33892      .   S
    N1037  C649      1.37856      .   S
    N1037  N1172     1.33892      .   S
    N1038  C650      1.37856      .   S
    N1038  N1173     1.33892      .   S
    C611   O438      1.24178      .   S
    C611   C686      1.49278      .   S
    C610   O437      1.24178      .   S
    C610   C685      1.49278      .   S
    C599   O426      1.24178      .   S
    C599   C674      1.49278      .   S
    C598   O425      1.24178      .   S
    C598   C673      1.49278      .   S
    Zr113  O596      2.25084      .   S
    Zr112  O595      2.25084      .   S
    Zr1    O584      2.25084      .   S
    Zr98   O583      2.25084      .   S
    O452   H467      0.99793      .   S
    O453   H468      0.99793      .   S
    O441   H456      0.99793      .   S
    O440   H455      0.99793      .   S
    O626   C794      1.27158      .   S
    O625   C793      1.27158      .   S
    O613   C1391     1.27158      .   S
    O614   C1392     1.27158      .   S
    C781   O304      1.25764      .   S
    C781   C928      1.41764      .   S
    C780   O303      1.25764      .   S
    C780   C927      1.41764      .   S
    C376   O307      1.25764      .   S
    C376   C931      1.41764      .   S
    C377   O308      1.25764      .   S
    C377   C932      1.41764      .   S
    C749   O584      1.25874      .   S
    C760   O595      1.25874      .   S
    C761   O596      1.25874      .   S
    C748   O583      1.25874      .   S
    C958   O631      1.28769      .   S
    C958   O473      1.28267      .   S
    C962   O635      1.28769  1_655   S
    C962   O477      1.28267      .   S
    C957   O630      1.28769      .   S
    C957   O472      1.28267      .   S
    C961   O634      1.28769  1_455   S
    C961   O476      1.28267      .   S
    N856   C931      1.41969      .   S
    N857   C932      1.41969      .   S
    N853   C928      1.41969      .   S
    N852   C927      1.41969      .   S
    H1227  C1212     0.95047      .   S
    H1238  C1223     0.95047      .   S
    H1226  C1211     0.95047      .   S
    H1239  C1224     0.95047      .   S
    H833   C818      0.95110      .   S
    H832   C817      0.95110      .   S
    H821   C806      0.95110      .   S
    H820   C385      0.95110      .   S
    C686   C1224     1.34858      .   S
    C685   C1223     1.34858      .   S
    C674   C1212     1.34858      .   S
    C673   C1211     1.34858      .   S
    O7     Zr2       2.07970      .   S
    O8     Zr19      2.07838  1_655   S
    O10    Zr2       2.24090  1_455   S
    O10    Zr6       2.31787      .   S
    O13    Zr128     2.25711      .   S
    O14    Zr104     2.28985      .   S
    O20    Zr153     2.24427      .   S
    O23    Zr4       2.28446  1_455   S
    O24    Zr19      2.24038  1_655   S
    O24    Zr3       2.24669      .   S
    O28    Zr161     2.31653      .   S
    O29    Zr107     2.26690      .   S
    O35    Zr19      2.18026      .   S
    O36    Zr2       2.25457      .   S
    O64    Zr4       2.07313  1_455   S
    O65    Zr5       2.07056      .   S
    O66    Zr19      2.25091      .   S
    O66    Zr6       2.33901      .   S
    O68    Zr3       2.24590      .   S
    O68    Zr5       2.24168  1_655   S
    O71    Zr5       2.27264  1_655   S
    O193   Zr114     2.07970      .   S
    O194   Zr115     2.07970      .   S
    O195   Zr116     2.07970      .   S
    O196   Zr117     2.07970      .   S
    O197   Zr118     2.07970      .   S
    O198   Zr119     2.07970      .   S
    O199   Zr120     2.07970      .   S
    O200   Zr121     2.07970      .   S
    O201   Zr122     2.07970      .   S
    O202   Zr123     2.07970      .   S
    O203   Zr124     2.07970      .   S
    O204   Zr125     2.07970      .   S
    O205   Zr126     2.07970      .   S
    O206   Zr127     2.07970      .   S
    O207   Zr128     2.07970      .   S
    O208   Zr97      2.07838  1_455   S
    O209   Zr98      2.07838      .   S
    O210   Zr1       2.07838      .   S
    O211   Zr0       2.07838      .   S
    O212   Zr103     2.07838      .   S
    O213   Zr104     2.07838      .   S
    O214   Zr105     2.07838      .   S
    O215   Zr106     2.07838  1_655   S
    O216   Zr107     2.07838  1_455   S
    O217   Zr108     2.07838      .   S
    O218   Zr109     2.07838      .   S
    O219   Zr110     2.07838      .   S
    O220   Zr111     2.07838      .   S
    O221   Zr112     2.07838      .   S
    O222   Zr113     2.07838      .   S
    O240   Zr114     2.24090  1_655   S
    O240   Zr178     2.31787      .   S
    O241   Zr115     2.24090      .   S
    O241   Zr179     2.31787      .   S
    O242   Zr116     2.24090      .   S
    O242   Zr180     2.31787      .   S
    O243   Zr117     2.24090      .   S
    O243   Zr181     2.31787      .   S
    O244   Zr118     2.24090      .   S
    O244   Zr182     2.31787      .   S
    O245   Zr119     2.24090      .   S
    O245   Zr183     2.31787      .   S
    O246   Zr120     2.24090      .   S
    O246   Zr184     2.31787      .   S
    O247   Zr121     2.24090  1_455   S
    O247   Zr185     2.31787      .   S
    O248   Zr122     2.24090  1_655   S
    O248   Zr186     2.31787      .   S
    O249   Zr123     2.24090      .   S
    O249   Zr187     2.31787      .   S
    O250   Zr124     2.24090      .   S
    O250   Zr188     2.31787      .   S
    O251   Zr125     2.24090      .   S
    O251   Zr189     2.31787      .   S
    O252   Zr126     2.24090      .   S
    O252   Zr190     2.31787      .   S
    O253   Zr127     2.24090      .   S
    O253   Zr191     2.31787      .   S
    O254   Zr128     2.24090      .   S
    O254   Zr192     2.31787      .   S
    O285   Zr115     2.25711      .   S
    O286   Zr122     2.25711      .   S
    O287   Zr117     2.25711      .   S
    O288   Zr124     2.25711      .   S
    O289   Zr119     2.25711      .   S
    O290   Zr126     2.25711      .   S
    O291   Zr2       2.25711      .   S
    O292   Zr120     2.25711      .   S
    O293   Zr123     2.25711      .   S
    O294   Zr114     2.25711      .   S
    O295   Zr125     2.25711      .   S
    O296   Zr116     2.25711      .   S
    O297   Zr127     2.25711      .   S
    O298   Zr118     2.25711      .   S
    O299   Zr121     2.25711      .   S
    O300   Zr109     2.28985      .   S
    O301   Zr19      2.28985      .   S
    O302   Zr111     2.28985      .   S
    O303   Zr98      2.28985      .   S
    O304   Zr113     2.28985      .   S
    O305   Zr0       2.28985      .   S
    O306   Zr107     2.28985      .   S
    O307   Zr112     2.28985      .   S
    O308   Zr1       2.28985      .   S
    O309   Zr106     2.28985      .   S
    O310   Zr103     2.28985      .   S
    O311   Zr108     2.28985      .   S
    O312   Zr105     2.28985      .   S
    O313   Zr110     2.28985      .   S
    O314   Zr97      2.28985      .   S
    O375   Zr150     2.24427      .   S
    O172   Zr155     2.24427      .   S
    O173   Zr144     2.24427      .   S
    O174   Zr157     2.24427      .   S
    O175   Zr146     2.24427      .   S
    O176   Zr151     2.24427      .   S
    O177   Zr148     2.24427      .   S
    O386   Zr145     2.24427      .   S
    O387   Zr158     2.24427      .   S
    O388   Zr147     2.24427      .   S
    O389   Zr152     2.24427      .   S
    O390   Zr149     2.24427      .   S
    O391   Zr154     2.24427      .   S
    O392   Zr4       2.24427      .   S
    O393   Zr156     2.24427      .   S
    O424   Zr144     2.28446  1_655   S
    O425   Zr145     2.28446      .   S
    O426   Zr146     2.28446      .   S
    O427   Zr147     2.28446      .   S
    O428   Zr148     2.28446      .   S
    O429   Zr149     2.28446      .   S
    O430   Zr150     2.28446      .   S
    O431   Zr151     2.28446  1_455   S
    O432   Zr152     2.28446  1_655   S
    O433   Zr153     2.28446      .   S
    O434   Zr154     2.28446      .   S
    O435   Zr155     2.28446      .   S
    O436   Zr156     2.28446      .   S
    O437   Zr157     2.28446      .   S
    O438   Zr158     2.28446      .   S
    O439   Zr97      2.24038  1_455   S
    O439   Zr129     2.24669      .   S
    O440   Zr98      2.24038      .   S
    O440   Zr130     2.24669      .   S
    O441   Zr1       2.24038      .   S
    O441   Zr131     2.24669      .   S
    O442   Zr0       2.24038      .   S
    O442   Zr132     2.24669      .   S
    O443   Zr103     2.24038      .   S
    O443   Zr133     2.24669      .   S
    O444   Zr104     2.24038      .   S
    O444   Zr134     2.24669      .   S
    O445   Zr105     2.24038      .   S
    O445   Zr135     2.24669      .   S
    O446   Zr106     2.24038  1_655   S
    O446   Zr136     2.24669      .   S
    O447   Zr107     2.24038  1_455   S
    O447   Zr137     2.24669      .   S
    O448   Zr108     2.24038      .   S
    O448   Zr138     2.24669      .   S
    O449   Zr109     2.24038      .   S
    O449   Zr139     2.24669      .   S
    O450   Zr110     2.24038      .   S
    O450   Zr140     2.24669      .   S
    O451   Zr111     2.24038      .   S
    O451   Zr141     2.24669      .   S
    O452   Zr112     2.24038      .   S
    O452   Zr142     2.24669      .   S
    O453   Zr113     2.24038      .   S
    O453   Zr143     2.24669      .   S
    O237   Zr90      2.31653      .   S
    O238   Zr163     2.31653      .   S
    O509   Zr166     2.31653      .   S
    O510   Zr165     2.31653      .   S
    O511   Zr168     2.31653      .   S
    O512   Zr159     2.31653      .   S
    O513   Zr170     2.31653      .   S
    O514   Zr169     2.31653      .   S
    O515   Zr164     2.31653      .   S
    O516   Zr171     2.31653      .   S
    O517   Zr5       2.31653      .   S
    O518   Zr91      2.31653      .   S
    O519   Zr160     2.31653      .   S
    O520   Zr167     2.31653      .   S
    O521   Zr162     2.31653      .   S
    O522   Zr106     2.26690      .   S
    O523   Zr109     2.26690      .   S
    O524   Zr108     2.26690      .   S
    O525   Zr111     2.26690      .   S
    O526   Zr110     2.26690      .   S
    O527   Zr113     2.26690  1_554   S
    O528   Zr112     2.26690  1_554   S
    O529   Zr97      2.26690      .   S
    O530   Zr19      2.26690      .   S
    O531   Zr1       2.26690  1_554   S
    O532   Zr98      2.26690  1_554   S
    O533   Zr103     2.26690      .   S
    O534   Zr0       2.26690      .   S
    O535   Zr105     2.26690      .   S
    O536   Zr104     2.26690      .   S
    O612   Zr97      2.18026      .   S
    O613   Zr98      2.18026      .   S
    O614   Zr1       2.18026      .   S
    O615   Zr0       2.18026      .   S
    O616   Zr103     2.18026      .   S
    O617   Zr104     2.18026      .   S
    O618   Zr105     2.18026      .   S
    O619   Zr106     2.18026      .   S
    O620   Zr107     2.18026      .   S
    O621   Zr108     2.18026      .   S
    O622   Zr109     2.18026      .   S
    O623   Zr110     2.18026      .   S
    O624   Zr111     2.18026      .   S
    O625   Zr112     2.18026      .   S
    O626   Zr113     2.18026      .   S
    O627   Zr114     2.25457      .   S
    O628   Zr115     2.25457      .   S
    O629   Zr116     2.25457      .   S
    O630   Zr117     2.25457  1_556   S
    O631   Zr118     2.25457  1_556   S
    O632   Zr119     2.25457      .   S
    O633   Zr120     2.25457      .   S
    O634   Zr121     2.25457  1_556   S
    O635   Zr122     2.25457  1_556   S
    O636   Zr123     2.25457      .   S
    O637   Zr124     2.25457      .   S
    O638   Zr125     2.25457      .   S
    O639   Zr126     2.25457      .   S
    O640   Zr127     2.25457      .   S
    O641   Zr128     2.25457      .   S
    O1046  Zr144     2.07313  1_655   S
    O1047  Zr145     2.07313      .   S
    O1048  Zr146     2.07313      .   S
    O1049  Zr147     2.07313      .   S
    O1050  Zr148     2.07313      .   S
    O1051  Zr149     2.07313      .   S
    O1052  Zr150     2.07313      .   S
    O1053  Zr151     2.07313  1_455   S
    O1054  Zr152     2.07313  1_655   S
    O1055  Zr153     2.07313      .   S
    O1056  Zr154     2.07313      .   S
    O1057  Zr155     2.07313      .   S
    O1058  Zr156     2.07313      .   S
    O1059  Zr157     2.07313      .   S
    O1060  Zr158     2.07313      .   S
    O1061  Zr159     2.07056      .   S
    O1045  Zr160     2.07056  1_565   S
    O1062  Zr161     2.07056      .   S
    O1063  Zr162     2.07056      .   S
    O1064  Zr163     2.07056      .   S
    O1065  Zr164     2.07056  1_565   S
    O1066  Zr165     2.07056      .   S
    O1067  Zr166     2.07056      .   S
    O1068  Zr167     2.07056      .   S
    O1069  Zr168     2.07056      .   S
    O1070  Zr169     2.07056  1_545   S
    O1071  Zr170     2.07056      .   S
    O1072  Zr171     2.07056      .   S
    O1073  Zr90      2.07056      .   S
    O1074  Zr91      2.07056  1_545   S
    O1075  Zr97      2.25091      .   S
    O1075  Zr178     2.33901      .   S
    O1076  Zr98      2.25091      .   S
    O1076  Zr179     2.33901  1_545   S
    O1077  Zr1       2.25091      .   S
    O1077  Zr180     2.33901      .   S
    O1078  Zr0       2.25091      .   S
    O1078  Zr181     2.33901      .   S
    O1079  Zr103     2.25091      .   S
    O1079  Zr182     2.33901      .   S
    O1080  Zr104     2.25091      .   S
    O1080  Zr183     2.33901  1_545   S
    O1081  Zr105     2.25091      .   S
    O1081  Zr184     2.33901      .   S
    O1082  Zr106     2.25091      .   S
    O1082  Zr185     2.33901      .   S
    O1083  Zr107     2.25091      .   S
    O1083  Zr186     2.33901      .   S
    O1084  Zr108     2.25091      .   S
    O1084  Zr187     2.33901      .   S
    O1085  Zr109     2.25091      .   S
    O1085  Zr188     2.33901  1_565   S
    O1086  Zr110     2.25091      .   S
    O1086  Zr189     2.33901      .   S
    O1087  Zr111     2.25091      .   S
    O1087  Zr190     2.33901      .   S
    O1088  Zr112     2.25091      .   S
    O1088  Zr191     2.33901      .   S
    O1089  Zr113     2.25091      .   S
    O1089  Zr192     2.33901  1_565   S
    O1105  Zr129     2.24590      .   S
    O1105  Zr159     2.24168  1_455   S
    O1106  Zr130     2.24590      .   S
    O1106  Zr160     2.24168      .   S
    O1107  Zr131     2.24590      .   S
    O1107  Zr161     2.24168      .   S
    O1108  Zr132     2.24590      .   S
    O1108  Zr162     2.24168      .   S
    O1109  Zr133     2.24590      .   S
    O1109  Zr163     2.24168      .   S
    O1110  Zr134     2.24590      .   S
    O1110  Zr164     2.24168      .   S
    O1111  Zr135     2.24590      .   S
    O1111  Zr165     2.24168      .   S
    O1112  Zr136     2.24590      .   S
    O1112  Zr166     2.24168  1_655   S
    O1113  Zr137     2.24590      .   S
    O1113  Zr167     2.24168  1_455   S
    O1114  Zr138     2.24590      .   S
    O1114  Zr168     2.24168      .   S
    O1115  Zr139     2.24590      .   S
    O1115  Zr169     2.24168      .   S
    O1116  Zr140     2.24590      .   S
    O1116  Zr170     2.24168      .   S
    O1117  Zr141     2.24590      .   S
    O1117  Zr171     2.24168      .   S
    O1118  Zr142     2.24590      .   S
    O1118  Zr90      2.24168      .   S
    O1119  Zr143     2.24590      .   S
    O1119  Zr91      2.24168      .   S
    O1150  Zr159     2.27264  1_455   S
    O1151  Zr160     2.27264      .   S
    O1152  Zr161     2.27264      .   S
    O1153  Zr162     2.27264      .   S
    O1154  Zr163     2.27264      .   S
    O1155  Zr164     2.27264      .   S
    O1156  Zr165     2.27264      .   S
    O1157  Zr166     2.27264  1_655   S
    O1158  Zr167     2.27264  1_455   S
    O1159  Zr168     2.27264      .   S
    O1160  Zr169     2.27264      .   S
    O1161  Zr170     2.27264      .   S
    O1162  Zr171     2.27264      .   S
    O1163  Zr90      2.27264      .   S
    O1164  Zr91      2.27264      .   S
