# CIF file generated by openbabel 2.4.90, see http://openbabel.sf.net
data_I
_chemical_name_common ''
_cell_length_a 39.222
_cell_length_b 26.018
_cell_length_c 27.887
_cell_angle_alpha 90
_cell_angle_beta 90
_cell_angle_gamma 90
_space_group_name_H-M_alt 'P 1'
_space_group_name_Hall 'P 1'
loop_
    _symmetry_equiv_pos_as_xyz
    x,y,z
loop_
    _atom_site_label
    _atom_site_type_symbol
    _atom_site_fract_x
    _atom_site_fract_y
    _atom_site_fract_z
    _atom_site_occupancy
    Zr0     Zr   0.51253   0.19131   0.20101   1.000
    Zr1     Zr   0.23747   0.44131   0.95101   1.000
    Zr2     Zr   0.98690   0.30022   0.55889   1.000
    Zr3     Zr   0.93974   0.21879   0.63324   1.000
    Zr4     Zr   0.98664   0.31888   0.68418   1.000
    Zr5     Zr   0.01232   0.17290   0.57488   1.000
    Zr6     Zr   0.05965   0.27276   0.62667   1.000
    O7      O    0.96218   0.29020   0.62420   1.000
    O8      O    0.98509   0.17840   0.63840   1.000
    O9      O    0.15257   0.48090   0.83440   1.000
    O10     O    0.01749   0.33460   0.61870   1.000
    H11     H    0.02540   0.37080   0.61410   1.000
    O12     O    0.84829   0.00150   0.83270   1.000
    O13     O    0.81786   0.05430   0.78430   1.000
    O14     O    0.81637   0.05290   0.48230   1.000
    O15     O    0.15218   0.48590   0.42510   1.000
    O16     O    0.00919   0.18980   0.26150   1.000
    O17     O    0.07849   0.33900   0.66810   1.000
    O18     O    0.84718   0.00610   0.42950   1.000
    Zr19    Zr   0.01253   0.19131   0.70101   1.000
    O20     O    0.18238   0.41970   0.45740   1.000
    O21     O    0.92138   0.15060   0.59370   1.000
    O22     O    0.03232   0.36580   0.71000   1.000
    O23     O    0.96593   0.24110   0.70180   1.000
    H24     H    0.95170   0.23900   0.73140   1.000
    O25     O    0.00865   0.18130   0.49660   1.000
    O26     O    0.18320   0.42280   0.79280   1.000
    O27     O    0.99170   0.27270   0.27480   1.000
    O28     O    0.92244   0.16310   0.68750   1.000
    O29     O    0.07750   0.32590   0.57010   1.000
    O30     O    0.96944   0.14400   0.73090   1.000
    C31     C    0.06330   0.36450   0.70090   1.000
    O32     O    0.99240   0.26680   0.48470   1.000
    C33     C    0.15610   0.44590   0.80290   1.000
    O34     O    0.03102   0.33990   0.52340   1.000
    C35     C    0.84530   0.03600   0.80120   1.000
    C36     C    0.93690   0.12120   0.56510   1.000
    C37     C    0.93830   0.14080   0.72040   1.000
    C38     C    0.15530   0.44460   0.44850   1.000
    C39     C    0.84360   0.03460   0.46570   1.000
    C40     C    0.00120   0.22120   0.47170   1.000
    O41     O    0.02540   0.26480   0.68120   1.000
    O42     O    0.02508   0.25010   0.57660   1.000
    O43     O    0.04737   0.18550   0.63710   1.000
    H44     H    0.06730   0.16170   0.64000   1.000
    O45     O    0.96573   0.22070   0.56150   1.000
    H46     H    0.95140   0.21030   0.53340   1.000
    C47     C    0.06200   0.34550   0.53430   1.000
    O48     O    0.96844   0.11880   0.55800   1.000
    C49     C    0.99990   0.22740   0.28830   1.000
    Zr50    Zr   0.76232   0.57710   0.82488   1.000
    Zr51    Zr   0.73768   0.92290   0.82488   1.000
    Zr52    Zr   0.98747   0.80869   0.70101   1.000
    Zr53    Zr   0.26253   0.05869   0.95101   1.000
    O54     O    0.09743   0.23090   0.58440   1.000
    O55     O    0.65257   0.98090   0.83440   1.000
    O56     O    0.34743   0.01910   0.83440   1.000
    O57     O    0.90257   0.26910   0.08440   1.000
    Zr58    Zr   0.48747   0.80869   0.20101   1.000
    Zr59    Zr   0.76253   0.05869   0.45101   1.000
    Zr60    Zr   0.73747   0.44131   0.45101   1.000
    Zr61    Zr   0.01253   0.69131   0.20101   1.000
    Zr62    Zr   0.98747   0.30869   0.20101   1.000
    Zr63    Zr   0.26253   0.55869   0.45101   1.000
    Zr64    Zr   0.23747   0.94131   0.45101   1.000
    Zr65    Zr   0.51253   0.69131   0.70101   1.000
    Zr66    Zr   0.48747   0.30869   0.70101   1.000
    Zr67    Zr   0.76253   0.55869   0.95101   1.000
    Zr68    Zr   0.73747   0.94131   0.95101   1.000
    Zr69    Zr   0.01310   0.69978   0.55889   1.000
    Zr70    Zr   0.23690   0.94978   0.80889   1.000
    Zr71    Zr   0.26310   0.55022   0.80889   1.000
    Zr72    Zr   0.48690   0.30022   0.05889   1.000
    Zr73    Zr   0.51310   0.69978   0.05889   1.000
    Zr74    Zr   0.73690   0.94978   0.30889   1.000
    Zr75    Zr   0.76310   0.55022   0.30889   1.000
    Zr76    Zr   0.98690   0.80022   0.05889   1.000
    Zr77    Zr   0.01310   0.19978   0.05889   1.000
    Zr78    Zr   0.23690   0.44978   0.30889   1.000
    Zr79    Zr   0.26310   0.05022   0.30889   1.000
    Zr80    Zr   0.48690   0.80022   0.55889   1.000
    Zr81    Zr   0.51310   0.19978   0.55889   1.000
    Zr82    Zr   0.73690   0.44978   0.80889   1.000
    Zr83    Zr   0.76310   0.05022   0.80889   1.000
    Zr84    Zr   0.06026   0.78121   0.63324   1.000
    Zr85    Zr   0.18974   0.03121   0.88324   1.000
    Zr86    Zr   0.31026   0.46879   0.88324   1.000
    Zr87    Zr   0.43974   0.21879   0.13324   1.000
    Zr88    Zr   0.56026   0.78121   0.13324   1.000
    Zr89    Zr   0.68974   0.03121   0.38324   1.000
    Zr90    Zr   0.81026   0.46879   0.38324   1.000
    Zr91    Zr   0.93974   0.71879   0.13324   1.000
    Zr92    Zr   0.06026   0.28121   0.13324   1.000
    Zr93    Zr   0.18974   0.53121   0.38324   1.000
    Zr94    Zr   0.31026   0.96879   0.38324   1.000
    Zr95    Zr   0.43974   0.71879   0.63324   1.000
    Zr96    Zr   0.56026   0.28121   0.63324   1.000
    Zr97    Zr   0.68974   0.53121   0.88324   1.000
    Zr98    Zr   0.81026   0.96879   0.88324   1.000
    Zr99    Zr   0.01336   0.68112   0.68418   1.000
    Zr100   Zr   0.23664   0.93112   0.93418   1.000
    Zr101   Zr   0.26336   0.56888   0.93418   1.000
    Zr102   Zr   0.48664   0.31888   0.18418   1.000
    Zr103   Zr   0.51336   0.68112   0.18418   1.000
    Zr104   Zr   0.73664   0.93112   0.43418   1.000
    Zr105   Zr   0.76336   0.56888   0.43418   1.000
    Zr106   Zr   0.98664   0.81888   0.18418   1.000
    Zr107   Zr   0.01336   0.18112   0.18418   1.000
    Zr108   Zr   0.23664   0.43112   0.43418   1.000
    Zr109   Zr   0.26336   0.06888   0.43418   1.000
    Zr110   Zr   0.48664   0.81888   0.68418   1.000
    Zr111   Zr   0.51336   0.18112   0.68418   1.000
    Zr112   Zr   0.73664   0.43112   0.93418   1.000
    Zr113   Zr   0.76336   0.06888   0.93418   1.000
    Zr114   Zr   0.98768   0.82710   0.57488   1.000
    Zr115   Zr   0.26232   0.07710   0.82488   1.000
    Zr116   Zr   0.23768   0.42290   0.82488   1.000
    Zr117   Zr   0.51232   0.17290   0.07488   1.000
    Zr118   Zr   0.48768   0.82710   0.07488   1.000
    Zr119   Zr   0.76232   0.07710   0.32488   1.000
    Zr120   Zr   0.73768   0.42290   0.32488   1.000
    Zr121   Zr   0.01232   0.67290   0.07488   1.000
    Zr122   Zr   0.98768   0.32710   0.07488   1.000
    Zr123   Zr   0.26232   0.57710   0.32488   1.000
    Zr124   Zr   0.23768   0.92290   0.32488   1.000
    Zr125   Zr   0.51232   0.67290   0.57488   1.000
    Zr126   Zr   0.48768   0.32710   0.57488   1.000
    O127    O    0.43238   0.83030   0.70740   1.000
    O128    O    0.06762   0.66970   0.70740   1.000
    O129    O    0.68238   0.41970   0.95740   1.000
    O130    O    0.31762   0.58030   0.95740   1.000
    O131    O    0.93238   0.83030   0.20740   1.000
    O132    O    0.56762   0.66970   0.20740   1.000
    Zr133   Zr   0.94035   0.72724   0.62667   1.000
    Zr134   Zr   0.30965   0.97724   0.87667   1.000
    Zr135   Zr   0.19035   0.52276   0.87667   1.000
    Zr136   Zr   0.55965   0.27276   0.12667   1.000
    Zr137   Zr   0.44035   0.72724   0.12667   1.000
    Zr138   Zr   0.80965   0.97724   0.37667   1.000
    Zr139   Zr   0.69035   0.52276   0.37667   1.000
    Zr140   Zr   0.05965   0.77276   0.12667   1.000
    Zr141   Zr   0.94035   0.22724   0.12667   1.000
    Zr142   Zr   0.30965   0.47724   0.37667   1.000
    Zr143   Zr   0.19035   0.02276   0.37667   1.000
    Zr144   Zr   0.55965   0.77276   0.62667   1.000
    Zr145   Zr   0.44035   0.22724   0.62667   1.000
    Zr146   Zr   0.80965   0.47724   0.87667   1.000
    Zr147   Zr   0.69035   0.02276   0.87667   1.000
    O148    O    0.03782   0.70980   0.62420   1.000
    O149    O    0.21218   0.95980   0.87420   1.000
    O150    O    0.28782   0.54020   0.87420   1.000
    O151    O    0.46218   0.29020   0.12420   1.000
    O152    O    0.53782   0.70980   0.12420   1.000
    O153    O    0.71218   0.95980   0.37420   1.000
    O154    O    0.78782   0.54020   0.37420   1.000
    O155    O    0.96218   0.79020   0.12420   1.000
    O156    O    0.03782   0.20980   0.12420   1.000
    O157    O    0.21218   0.45980   0.37420   1.000
    O158    O    0.28782   0.04020   0.37420   1.000
    O159    O    0.46218   0.79020   0.62420   1.000
    O160    O    0.53782   0.20980   0.62420   1.000
    O161    O    0.71218   0.45980   0.87420   1.000
    O162    O    0.78782   0.04020   0.87420   1.000
    O163    O    0.01491   0.82160   0.63840   1.000
    O164    O    0.23509   0.07160   0.88840   1.000
    O165    O    0.26491   0.42840   0.88840   1.000
    O166    O    0.48509   0.17840   0.13840   1.000
    O167    O    0.51491   0.82160   0.13840   1.000
    O168    O    0.73509   0.07160   0.38840   1.000
    O169    O    0.76491   0.42840   0.38840   1.000
    O170    O    0.98509   0.67840   0.13840   1.000
    O171    O    0.01491   0.32160   0.13840   1.000
    O172    O    0.23509   0.57160   0.38840   1.000
    O173    O    0.26491   0.92840   0.38840   1.000
    O174    O    0.48509   0.67840   0.63840   1.000
    O175    O    0.51491   0.32160   0.63840   1.000
    O176    O    0.73509   0.57160   0.88840   1.000
    O177    O    0.76491   0.92840   0.88840   1.000
    O178    O    0.84743   0.51910   0.83440   1.000
    O179    O    0.40257   0.76910   0.08440   1.000
    O180    O    0.09743   0.73090   0.08440   1.000
    O181    O    0.65257   0.48090   0.33440   1.000
    O182    O    0.34743   0.51910   0.33440   1.000
    O183    O    0.90257   0.76910   0.58440   1.000
    O184    O    0.59743   0.73090   0.58440   1.000
    O185    O    0.15257   0.98090   0.33440   1.000
    O186    O    0.84743   0.01910   0.33440   1.000
    O187    O    0.40257   0.26910   0.58440   1.000
    O188    O    0.81680   0.57720   0.79280   1.000
    O189    O    0.43320   0.82720   0.04280   1.000
    O190    O    0.59743   0.23090   0.08440   1.000
    O191    O    0.98251   0.66540   0.61870   1.000
    O192    O    0.26749   0.91540   0.86870   1.000
    O193    O    0.23251   0.58460   0.86870   1.000
    O194    O    0.51749   0.33460   0.11870   1.000
    O195    O    0.48251   0.66540   0.11870   1.000
    O196    O    0.76749   0.91540   0.36870   1.000
    O197    O    0.73251   0.58460   0.36870   1.000
    O198    O    0.01749   0.83460   0.11870   1.000
    O199    O    0.98251   0.16540   0.11870   1.000
    O200    O    0.26749   0.41540   0.36870   1.000
    O201    O    0.23251   0.08460   0.36870   1.000
    O202    O    0.51749   0.83460   0.61870   1.000
    O203    O    0.48251   0.16540   0.61870   1.000
    O204    O    0.76749   0.41540   0.86870   1.000
    O205    O    0.73251   0.08460   0.86870   1.000
    H206    H    0.97460   0.62920   0.61410   1.000
    H207    H    0.27540   0.87920   0.86410   1.000
    H208    H    0.22460   0.62080   0.86410   1.000
    H209    H    0.52540   0.37080   0.11410   1.000
    H210    H    0.47460   0.62920   0.11410   1.000
    H211    H    0.77540   0.87920   0.36410   1.000
    H212    H    0.72460   0.62080   0.36410   1.000
    H213    H    0.02540   0.87080   0.11410   1.000
    H214    H    0.97460   0.12920   0.11410   1.000
    H215    H    0.27540   0.37920   0.36410   1.000
    H216    H    0.22460   0.12080   0.36410   1.000
    H217    H    0.52540   0.87080   0.61410   1.000
    H218    H    0.47460   0.12920   0.61410   1.000
    H219    H    0.77540   0.37920   0.86410   1.000
    H220    H    0.72460   0.12080   0.86410   1.000
    O221    O    0.15171   0.99850   0.83270   1.000
    O222    O    0.09829   0.24850   0.08270   1.000
    O223    O    0.40171   0.25150   0.08270   1.000
    O224    O    0.34829   0.00150   0.33270   1.000
    O225    O    0.65171   0.99850   0.33270   1.000
    O226    O    0.59829   0.24850   0.58270   1.000
    O227    O    0.90171   0.25150   0.58270   1.000
    O228    O    0.84829   0.50150   0.33270   1.000
    O229    O    0.15171   0.49850   0.33270   1.000
    O230    O    0.09829   0.74850   0.58270   1.000
    O231    O    0.40171   0.75150   0.58270   1.000
    O232    O    0.34829   0.50150   0.83270   1.000
    O233    O    0.65171   0.49850   0.83270   1.000
    O234    O    0.59829   0.74850   0.08270   1.000
    O235    O    0.90171   0.75150   0.08270   1.000
    O236    O    0.18214   0.94570   0.78430   1.000
    O237    O    0.06786   0.19570   0.03430   1.000
    O238    O    0.43214   0.30430   0.03430   1.000
    O239    O    0.31786   0.05430   0.28430   1.000
    O240    O    0.68214   0.94570   0.28430   1.000
    O241    O    0.56786   0.19570   0.53430   1.000
    O242    O    0.93214   0.30430   0.53430   1.000
    O243    O    0.81786   0.55430   0.28430   1.000
    O244    O    0.18214   0.44570   0.28430   1.000
    O245    O    0.06786   0.69570   0.53430   1.000
    O246    O    0.43214   0.80430   0.53430   1.000
    O247    O    0.31786   0.55430   0.78430   1.000
    O248    O    0.68214   0.44570   0.78430   1.000
    O249    O    0.56786   0.69570   0.03430   1.000
    O250    O    0.93214   0.80430   0.03430   1.000
    O251    O    0.18363   0.94710   0.48230   1.000
    O252    O    0.06637   0.19710   0.73230   1.000
    O253    O    0.43363   0.30290   0.73230   1.000
    O254    O    0.31637   0.05290   0.98230   1.000
    O255    O    0.68363   0.94710   0.98230   1.000
    O256    O    0.56637   0.19710   0.23230   1.000
    O257    O    0.93363   0.30290   0.23230   1.000
    O258    O    0.81637   0.55290   0.98230   1.000
    O259    O    0.18363   0.44710   0.98230   1.000
    O260    O    0.06637   0.69710   0.23230   1.000
    O261    O    0.43363   0.80290   0.23230   1.000
    O262    O    0.31637   0.55290   0.48230   1.000
    O263    O    0.68363   0.44710   0.48230   1.000
    O264    O    0.56637   0.69710   0.73230   1.000
    O265    O    0.93363   0.80290   0.73230   1.000
    O266    O    0.84782   0.51410   0.42510   1.000
    O267    O    0.40218   0.76410   0.67510   1.000
    O268    O    0.09782   0.73590   0.67510   1.000
    O269    O    0.65218   0.48590   0.92510   1.000
    O270    O    0.34782   0.51410   0.92510   1.000
    O271    O    0.90218   0.76410   0.17510   1.000
    O272    O    0.59782   0.73590   0.17510   1.000
    O273    O    0.15218   0.98590   0.92510   1.000
    O274    O    0.84782   0.01410   0.92510   1.000
    O275    O    0.40218   0.26410   0.17510   1.000
    O276    O    0.09782   0.23590   0.17510   1.000
    O277    O    0.65218   0.98590   0.42510   1.000
    O278    O    0.34782   0.01410   0.42510   1.000
    O279    O    0.90218   0.26410   0.67510   1.000
    O280    O    0.59782   0.23590   0.67510   1.000
    O281    O    0.99081   0.81020   0.26150   1.000
    O282    O    0.25919   0.06020   0.51150   1.000
    O283    O    0.24081   0.43980   0.51150   1.000
    O284    O    0.50919   0.18980   0.76150   1.000
    O285    O    0.49081   0.81020   0.76150   1.000
    O286    O    0.75919   0.06020   0.01150   1.000
    O287    O    0.74081   0.43980   0.01150   1.000
    O288    O    0.00919   0.68980   0.76150   1.000
    O289    O    0.99081   0.31020   0.76150   1.000
    O290    O    0.25919   0.56020   0.01150   1.000
    O291    O    0.24081   0.93980   0.01150   1.000
    O292    O    0.50919   0.68980   0.26150   1.000
    O293    O    0.49081   0.31020   0.26150   1.000
    O294    O    0.75919   0.56020   0.51150   1.000
    O295    O    0.74081   0.93980   0.51150   1.000
    O296    O    0.92151   0.66100   0.66810   1.000
    O297    O    0.32849   0.91100   0.91810   1.000
    O298    O    0.17151   0.58900   0.91810   1.000
    O299    O    0.57849   0.33900   0.16810   1.000
    O300    O    0.42151   0.66100   0.16810   1.000
    O301    O    0.82849   0.91100   0.41810   1.000
    O302    O    0.67151   0.58900   0.41810   1.000
    O303    O    0.07849   0.83900   0.16810   1.000
    O304    O    0.92151   0.16100   0.16810   1.000
    O305    O    0.32849   0.41100   0.41810   1.000
    O306    O    0.17151   0.08900   0.41810   1.000
    O307    O    0.57849   0.83900   0.66810   1.000
    O308    O    0.42151   0.16100   0.66810   1.000
    O309    O    0.82849   0.41100   0.91810   1.000
    O310    O    0.67151   0.08900   0.91810   1.000
    O311    O    0.15282   0.99390   0.42950   1.000
    O312    O    0.09718   0.24390   0.67950   1.000
    O313    O    0.40282   0.25610   0.67950   1.000
    O314    O    0.34718   0.00610   0.92950   1.000
    O315    O    0.65282   0.99390   0.92950   1.000
    O316    O    0.59718   0.24390   0.17950   1.000
    O317    O    0.90282   0.25610   0.17950   1.000
    O318    O    0.84718   0.50610   0.92950   1.000
    O319    O    0.15282   0.49390   0.92950   1.000
    O320    O    0.09718   0.74390   0.17950   1.000
    O321    O    0.40282   0.75610   0.17950   1.000
    O322    O    0.34718   0.50610   0.42950   1.000
    O323    O    0.65282   0.49390   0.42950   1.000
    O324    O    0.59718   0.74390   0.67950   1.000
    O325    O    0.90282   0.75610   0.67950   1.000
    O326    O    0.81762   0.58030   0.45740   1.000
    C327    C    0.84360   0.53460   0.96570   1.000
    C328    C    0.15640   0.46540   0.96570   1.000
    C329    C    0.09360   0.71540   0.21570   1.000
    C330    C    0.40640   0.78460   0.21570   1.000
    C331    C    0.34360   0.53460   0.46570   1.000
    C332    C    0.65640   0.46540   0.46570   1.000
    C333    C    0.59360   0.71540   0.71570   1.000
    C334    C    0.90640   0.78460   0.71570   1.000
    O335    O    0.18238   0.91970   0.95740   1.000
    O336    O    0.81762   0.08030   0.95740   1.000
    O337    O    0.43238   0.33030   0.20740   1.000
    O338    O    0.06762   0.16970   0.20740   1.000
    O339    O    0.68238   0.91970   0.45740   1.000
    O340    O    0.31762   0.08030   0.45740   1.000
    O341    O    0.93238   0.33030   0.70740   1.000
    O342    O    0.56762   0.16970   0.70740   1.000
    O343    O    0.07862   0.84940   0.59370   1.000
    O344    O    0.17138   0.09940   0.84370   1.000
    O345    O    0.32862   0.40060   0.84370   1.000
    O346    O    0.42138   0.15060   0.09370   1.000
    O347    O    0.57862   0.84940   0.09370   1.000
    O348    O    0.67138   0.09940   0.34370   1.000
    O349    O    0.82862   0.40060   0.34370   1.000
    O350    O    0.92138   0.65060   0.09370   1.000
    O351    O    0.07862   0.34940   0.09370   1.000
    O352    O    0.17138   0.59940   0.34370   1.000
    O353    O    0.32862   0.90060   0.34370   1.000
    O354    O    0.42138   0.65060   0.59370   1.000
    O355    O    0.57862   0.34940   0.59370   1.000
    O356    O    0.67138   0.59940   0.84370   1.000
    O357    O    0.82862   0.90060   0.84370   1.000
    O358    O    0.96768   0.63420   0.71000   1.000
    O359    O    0.28232   0.88420   0.96000   1.000
    O360    O    0.21768   0.61580   0.96000   1.000
    O361    O    0.53232   0.36580   0.21000   1.000
    O362    O    0.46768   0.63420   0.21000   1.000
    O363    O    0.78232   0.88420   0.46000   1.000
    O364    O    0.71768   0.61580   0.46000   1.000
    O365    O    0.03232   0.86580   0.21000   1.000
    O366    O    0.96768   0.13420   0.21000   1.000
    O367    O    0.28232   0.38420   0.46000   1.000
    O368    O    0.21768   0.11580   0.46000   1.000
    O369    O    0.53232   0.86580   0.71000   1.000
    O370    O    0.46768   0.13420   0.71000   1.000
    O371    O    0.78232   0.38420   0.96000   1.000
    O372    O    0.71768   0.11580   0.96000   1.000
    O373    O    0.03407   0.75890   0.70180   1.000
    O374    O    0.21593   0.00890   0.95180   1.000
    O375    O    0.28407   0.49110   0.95180   1.000
    O376    O    0.46593   0.24110   0.20180   1.000
    O377    O    0.53407   0.75890   0.20180   1.000
    O378    O    0.71593   0.00890   0.45180   1.000
    O379    O    0.78407   0.49110   0.45180   1.000
    O380    O    0.96593   0.74110   0.20180   1.000
    O381    O    0.03407   0.25890   0.20180   1.000
    O382    O    0.21593   0.50890   0.45180   1.000
    O383    O    0.28407   0.99110   0.45180   1.000
    O384    O    0.46593   0.74110   0.70180   1.000
    O385    O    0.53407   0.25890   0.70180   1.000
    O386    O    0.71593   0.50890   0.95180   1.000
    O387    O    0.78407   0.99110   0.95180   1.000
    H388    H    0.04830   0.76100   0.73140   1.000
    H389    H    0.20170   0.01100   0.98140   1.000
    H390    H    0.29830   0.48900   0.98140   1.000
    H391    H    0.45170   0.23900   0.23140   1.000
    H392    H    0.54830   0.76100   0.23140   1.000
    H393    H    0.70170   0.01100   0.48140   1.000
    H394    H    0.79830   0.48900   0.48140   1.000
    H395    H    0.95170   0.73900   0.23140   1.000
    H396    H    0.04830   0.26100   0.23140   1.000
    H397    H    0.20170   0.51100   0.48140   1.000
    H398    H    0.29830   0.98900   0.48140   1.000
    H399    H    0.45170   0.73900   0.73140   1.000
    H400    H    0.54830   0.26100   0.73140   1.000
    H401    H    0.70170   0.51100   0.98140   1.000
    H402    H    0.79830   0.98900   0.98140   1.000
    O403    O    0.99135   0.81870   0.49660   1.000
    O404    O    0.25865   0.06870   0.74660   1.000
    O405    O    0.24135   0.43130   0.74660   1.000
    O406    O    0.50865   0.18130   0.99660   1.000
    O407    O    0.49135   0.81870   0.99660   1.000
    O408    O    0.75865   0.06870   0.24660   1.000
    O409    O    0.74135   0.43130   0.24660   1.000
    O410    O    0.00865   0.68130   0.99660   1.000
    O411    O    0.99135   0.31870   0.99660   1.000
    O412    O    0.25865   0.56870   0.24660   1.000
    O413    O    0.24135   0.93130   0.24660   1.000
    O414    O    0.50865   0.68130   0.49660   1.000
    O415    O    0.49135   0.31870   0.49660   1.000
    O416    O    0.75865   0.56870   0.74660   1.000
    O417    O    0.74135   0.93130   0.74660   1.000
    O418    O    0.06680   0.67280   0.04280   1.000
    O419    O    0.68320   0.42280   0.29280   1.000
    O420    O    0.31680   0.57720   0.29280   1.000
    O421    O    0.93320   0.82720   0.54280   1.000
    O422    O    0.56680   0.67280   0.54280   1.000
    O423    O    0.18320   0.92280   0.29280   1.000
    O424    O    0.81680   0.07720   0.29280   1.000
    O425    O    0.43320   0.32720   0.54280   1.000
    O426    O    0.06680   0.17280   0.54280   1.000
    O427    O    0.68320   0.92280   0.79280   1.000
    O428    O    0.31680   0.07720   0.79280   1.000
    O429    O    0.93320   0.32720   0.04280   1.000
    O430    O    0.56680   0.17280   0.04280   1.000
    O431    O    0.00830   0.72730   0.27480   1.000
    O432    O    0.24170   0.97730   0.52480   1.000
    O433    O    0.25830   0.52270   0.52480   1.000
    O434    O    0.49170   0.27270   0.77480   1.000
    O435    O    0.50830   0.72730   0.77480   1.000
    O436    O    0.74170   0.97730   0.02480   1.000
    O437    O    0.75830   0.52270   0.02480   1.000
    O438    O    0.99170   0.77270   0.77480   1.000
    O439    O    0.00830   0.22730   0.77480   1.000
    O440    O    0.24170   0.47730   0.02480   1.000
    O441    O    0.25830   0.02270   0.02480   1.000
    O442    O    0.49170   0.77270   0.27480   1.000
    O443    O    0.50830   0.22730   0.27480   1.000
    O444    O    0.74170   0.47730   0.52480   1.000
    O445    O    0.75830   0.02270   0.52480   1.000
    O446    O    0.07756   0.83690   0.68750   1.000
    O447    O    0.17244   0.08690   0.93750   1.000
    O448    O    0.32756   0.41310   0.93750   1.000
    O449    O    0.42244   0.16310   0.18750   1.000
    O450    O    0.57756   0.83690   0.18750   1.000
    O451    O    0.67244   0.08690   0.43750   1.000
    O452    O    0.82756   0.41310   0.43750   1.000
    O453    O    0.92244   0.66310   0.18750   1.000
    O454    O    0.07756   0.33690   0.18750   1.000
    O455    O    0.17244   0.58690   0.43750   1.000
    O456    O    0.32756   0.91310   0.43750   1.000
    O457    O    0.42244   0.66310   0.68750   1.000
    O458    O    0.57756   0.33690   0.68750   1.000
    O459    O    0.67244   0.58690   0.93750   1.000
    O460    O    0.82756   0.91310   0.93750   1.000
    O461    O    0.92250   0.67410   0.57010   1.000
    O462    O    0.32750   0.92410   0.82010   1.000
    O463    O    0.17250   0.57590   0.82010   1.000
    O464    O    0.57750   0.32590   0.07010   1.000
    O465    O    0.42250   0.67410   0.07010   1.000
    O466    O    0.82750   0.92410   0.32010   1.000
    O467    O    0.67250   0.57590   0.32010   1.000
    O468    O    0.07750   0.82590   0.07010   1.000
    O469    O    0.92250   0.17410   0.07010   1.000
    O470    O    0.32750   0.42410   0.32010   1.000
    O471    O    0.17250   0.07590   0.32010   1.000
    O472    O    0.57750   0.82590   0.57010   1.000
    O473    O    0.42250   0.17410   0.57010   1.000
    O474    O    0.82750   0.42410   0.82010   1.000
    O475    O    0.67250   0.07590   0.82010   1.000
    O476    O    0.03056   0.85600   0.73090   1.000
    O477    O    0.21944   0.10600   0.98090   1.000
    O478    O    0.28056   0.39400   0.98090   1.000
    O479    O    0.46944   0.14400   0.23090   1.000
    O480    O    0.53056   0.85600   0.23090   1.000
    O481    O    0.71944   0.10600   0.48090   1.000
    O482    O    0.78056   0.39400   0.48090   1.000
    O483    O    0.96944   0.64400   0.23090   1.000
    O484    O    0.03056   0.35600   0.23090   1.000
    O485    O    0.21944   0.60600   0.48090   1.000
    O486    O    0.28056   0.89400   0.48090   1.000
    O487    O    0.46944   0.64400   0.73090   1.000
    O488    O    0.53056   0.35600   0.73090   1.000
    O489    O    0.71944   0.60600   0.98090   1.000
    O490    O    0.78056   0.89400   0.98090   1.000
    C491    C    0.93670   0.63550   0.70090   1.000
    C492    C    0.31330   0.88550   0.95090   1.000
    C493    C    0.18670   0.61450   0.95090   1.000
    C494    C    0.56330   0.36450   0.20090   1.000
    C495    C    0.43670   0.63550   0.20090   1.000
    C496    C    0.81330   0.88550   0.45090   1.000
    C497    C    0.68670   0.61450   0.45090   1.000
    C498    C    0.06330   0.86450   0.20090   1.000
    C499    C    0.93670   0.13550   0.20090   1.000
    C500    C    0.31330   0.38550   0.45090   1.000
    C501    C    0.18670   0.11450   0.45090   1.000
    C502    C    0.56330   0.86450   0.70090   1.000
    C503    C    0.43670   0.13550   0.70090   1.000
    C504    C    0.81330   0.38550   0.95090   1.000
    C505    C    0.68670   0.11450   0.95090   1.000
    O506    O    0.00760   0.73320   0.48470   1.000
    O507    O    0.24240   0.98320   0.73470   1.000
    O508    O    0.25760   0.51680   0.73470   1.000
    O509    O    0.49240   0.26680   0.98470   1.000
    O510    O    0.50760   0.73320   0.98470   1.000
    O511    O    0.74240   0.98320   0.23470   1.000
    O512    O    0.75760   0.51680   0.23470   1.000
    O513    O    0.99240   0.76680   0.98470   1.000
    O514    O    0.00760   0.23320   0.98470   1.000
    O515    O    0.24240   0.48320   0.23470   1.000
    O516    O    0.25760   0.01680   0.23470   1.000
    O517    O    0.49240   0.76680   0.48470   1.000
    O518    O    0.50760   0.23320   0.48470   1.000
    O519    O    0.74240   0.48320   0.73470   1.000
    O520    O    0.75760   0.01680   0.73470   1.000
    C521    C    0.84390   0.55410   0.80290   1.000
    C522    C    0.40610   0.80410   0.05290   1.000
    C523    C    0.09390   0.69590   0.05290   1.000
    C524    C    0.65610   0.44590   0.30290   1.000
    C525    C    0.34390   0.55410   0.30290   1.000
    C526    C    0.90610   0.80410   0.55290   1.000
    C527    C    0.59390   0.69590   0.55290   1.000
    C528    C    0.15610   0.94590   0.30290   1.000
    C529    C    0.84390   0.05410   0.30290   1.000
    C530    C    0.40610   0.30410   0.55290   1.000
    C531    C    0.09390   0.19590   0.55290   1.000
    C532    C    0.65610   0.94590   0.80290   1.000
    C533    C    0.34390   0.05410   0.80290   1.000
    C534    C    0.90610   0.30410   0.05290   1.000
    C535    C    0.59390   0.19590   0.05290   1.000
    O536    O    0.96898   0.66010   0.52340   1.000
    O537    O    0.28102   0.91010   0.77340   1.000
    O538    O    0.21898   0.58990   0.77340   1.000
    O539    O    0.53102   0.33990   0.02340   1.000
    O540    O    0.46898   0.66010   0.02340   1.000
    O541    O    0.78102   0.91010   0.27340   1.000
    O542    O    0.71898   0.58990   0.27340   1.000
    O543    O    0.03102   0.83990   0.02340   1.000
    O544    O    0.96898   0.16010   0.02340   1.000
    O545    O    0.28102   0.41010   0.27340   1.000
    O546    O    0.21898   0.08990   0.27340   1.000
    O547    O    0.53102   0.83990   0.52340   1.000
    O548    O    0.46898   0.16010   0.52340   1.000
    O549    O    0.78102   0.41010   0.77340   1.000
    O550    O    0.71898   0.08990   0.77340   1.000
    C551    C    0.15470   0.96400   0.80120   1.000
    C552    C    0.09530   0.21400   0.05120   1.000
    C553    C    0.40470   0.28600   0.05120   1.000
    C554    C    0.34530   0.03600   0.30120   1.000
    C555    C    0.65470   0.96400   0.30120   1.000
    C556    C    0.59530   0.21400   0.55120   1.000
    C557    C    0.90470   0.28600   0.55120   1.000
    C558    C    0.84530   0.53600   0.30120   1.000
    C559    C    0.15470   0.46400   0.30120   1.000
    C560    C    0.09530   0.71400   0.55120   1.000
    C561    C    0.40470   0.78600   0.55120   1.000
    C562    C    0.34530   0.53600   0.80120   1.000
    C563    C    0.65470   0.46400   0.80120   1.000
    C564    C    0.59530   0.71400   0.05120   1.000
    C565    C    0.90470   0.78600   0.05120   1.000
    C566    C    0.06310   0.87880   0.56510   1.000
    C567    C    0.18690   0.12880   0.81510   1.000
    C568    C    0.31310   0.37120   0.81510   1.000
    C569    C    0.43690   0.12120   0.06510   1.000
    C570    C    0.56310   0.87880   0.06510   1.000
    C571    C    0.68690   0.12880   0.31510   1.000
    C572    C    0.81310   0.37120   0.31510   1.000
    C573    C    0.93690   0.62120   0.06510   1.000
    C574    C    0.06310   0.37880   0.06510   1.000
    C575    C    0.18690   0.62880   0.31510   1.000
    C576    C    0.31310   0.87120   0.31510   1.000
    C577    C    0.43690   0.62120   0.56510   1.000
    C578    C    0.56310   0.37880   0.56510   1.000
    C579    C    0.68690   0.62880   0.81510   1.000
    C580    C    0.81310   0.87120   0.81510   1.000
    C581    C    0.06170   0.85920   0.72040   1.000
    C582    C    0.18830   0.10920   0.97040   1.000
    C583    C    0.31170   0.39080   0.97040   1.000
    C584    C    0.43830   0.14080   0.22040   1.000
    C585    C    0.56170   0.85920   0.22040   1.000
    C586    C    0.68830   0.10920   0.47040   1.000
    C587    C    0.81170   0.39080   0.47040   1.000
    C588    C    0.93830   0.64080   0.22040   1.000
    C589    C    0.06170   0.35920   0.22040   1.000
    C590    C    0.18830   0.60920   0.47040   1.000
    C591    C    0.31170   0.89080   0.47040   1.000
    C592    C    0.43830   0.64080   0.72040   1.000
    C593    C    0.56170   0.35920   0.72040   1.000
    C594    C    0.68830   0.60920   0.97040   1.000
    C595    C    0.81170   0.89080   0.97040   1.000
    C596    C    0.84470   0.55540   0.44850   1.000
    C597    C    0.40530   0.80540   0.69850   1.000
    C598    C    0.09470   0.69460   0.69850   1.000
    C599    C    0.65530   0.44460   0.94850   1.000
    C600    C    0.34470   0.55540   0.94850   1.000
    C601    C    0.90530   0.80540   0.19850   1.000
    C602    C    0.59470   0.69460   0.19850   1.000
    C603    C    0.15530   0.94460   0.94850   1.000
    C604    C    0.84470   0.05540   0.94850   1.000
    C605    C    0.40530   0.30540   0.19850   1.000
    C606    C    0.09470   0.19460   0.19850   1.000
    C607    C    0.65530   0.94460   0.44850   1.000
    C608    C    0.34470   0.05540   0.44850   1.000
    C609    C    0.90530   0.30540   0.69850   1.000
    C610    C    0.59470   0.19460   0.69850   1.000
    C611    C    0.15640   0.96540   0.46570   1.000
    C612    C    0.09360   0.21540   0.71570   1.000
    C613    C    0.40640   0.28460   0.71570   1.000
    C614    C    0.34360   0.03460   0.96570   1.000
    C615    C    0.65640   0.96540   0.96570   1.000
    C616    C    0.59360   0.21540   0.21570   1.000
    C617    C    0.90640   0.28460   0.21570   1.000
    C618    C    0.99880   0.77880   0.47170   1.000
    C619    C    0.25120   0.02880   0.72170   1.000
    C620    C    0.24880   0.47120   0.72170   1.000
    C621    C    0.50120   0.22120   0.97170   1.000
    C622    C    0.49880   0.77880   0.97170   1.000
    C623    C    0.75120   0.02880   0.22170   1.000
    C624    C    0.74880   0.47120   0.22170   1.000
    C625    C    0.00120   0.72120   0.97170   1.000
    C626    C    0.99880   0.27880   0.97170   1.000
    C627    C    0.25120   0.52880   0.22170   1.000
    C628    C    0.24880   0.97120   0.22170   1.000
    C629    C    0.50120   0.72120   0.47170   1.000
    C630    C    0.49880   0.27880   0.47170   1.000
    C631    C    0.75120   0.52880   0.72170   1.000
    C632    C    0.74880   0.97120   0.72170   1.000
    O633    O    0.27508   0.99990   0.82660   1.000
    O634    O    0.97460   0.73520   0.68120   1.000
    O635    O    0.27540   0.98520   0.93120   1.000
    O636    O    0.22460   0.51480   0.93120   1.000
    O637    O    0.52540   0.26480   0.18120   1.000
    O638    O    0.47460   0.73520   0.18120   1.000
    O639    O    0.77540   0.98520   0.43120   1.000
    O640    O    0.72460   0.51480   0.43120   1.000
    O641    O    0.02540   0.76480   0.18120   1.000
    O642    O    0.97460   0.23520   0.18120   1.000
    O643    O    0.27540   0.48520   0.43120   1.000
    O644    O    0.22460   0.01480   0.43120   1.000
    O645    O    0.52540   0.76480   0.68120   1.000
    O646    O    0.47460   0.23520   0.68120   1.000
    O647    O    0.77540   0.48520   0.93120   1.000
    O648    O    0.72460   0.01480   0.93120   1.000
    O649    O    0.97492   0.74990   0.57660   1.000
    O650    O    0.22492   0.50010   0.82660   1.000
    O651    O    0.52508   0.25010   0.07660   1.000
    O652    O    0.47492   0.74990   0.07660   1.000
    O653    O    0.77508   0.99990   0.32660   1.000
    O654    O    0.72492   0.50010   0.32660   1.000
    O655    O    0.02508   0.75010   0.07660   1.000
    O656    O    0.97492   0.24990   0.07660   1.000
    O657    O    0.27508   0.49990   0.32660   1.000
    O658    O    0.22492   0.00010   0.32660   1.000
    O659    O    0.52508   0.75010   0.57660   1.000
    O660    O    0.47492   0.24990   0.57660   1.000
    O661    O    0.77508   0.49990   0.82660   1.000
    O662    O    0.72492   0.00010   0.82660   1.000
    O663    O    0.95263   0.81450   0.63710   1.000
    O664    O    0.29737   0.06450   0.88710   1.000
    O665    O    0.20263   0.43550   0.88710   1.000
    O666    O    0.54737   0.18550   0.13710   1.000
    O667    O    0.45263   0.81450   0.13710   1.000
    O668    O    0.79737   0.06450   0.38710   1.000
    O669    O    0.70263   0.43550   0.38710   1.000
    O670    O    0.04737   0.68550   0.13710   1.000
    O671    O    0.95263   0.31450   0.13710   1.000
    O672    O    0.29737   0.56450   0.38710   1.000
    O673    O    0.20263   0.93550   0.38710   1.000
    O674    O    0.54737   0.68550   0.63710   1.000
    O675    O    0.45263   0.31450   0.63710   1.000
    O676    O    0.79737   0.56450   0.88710   1.000
    O677    O    0.70263   0.93550   0.88710   1.000
    H678    H    0.93270   0.83830   0.64000   1.000
    H679    H    0.31730   0.08830   0.89000   1.000
    H680    H    0.18270   0.41170   0.89000   1.000
    H681    H    0.56730   0.16170   0.14000   1.000
    H682    H    0.43270   0.83830   0.14000   1.000
    H683    H    0.81730   0.08830   0.39000   1.000
    H684    H    0.68270   0.41170   0.39000   1.000
    H685    H    0.06730   0.66170   0.14000   1.000
    H686    H    0.93270   0.33830   0.14000   1.000
    H687    H    0.31730   0.58830   0.39000   1.000
    H688    H    0.18270   0.91170   0.39000   1.000
    H689    H    0.56730   0.66170   0.64000   1.000
    H690    H    0.43270   0.33830   0.64000   1.000
    H691    H    0.81730   0.58830   0.89000   1.000
    H692    H    0.68270   0.91170   0.89000   1.000
    O693    O    0.03427   0.77930   0.56150   1.000
    O694    O    0.21573   0.02930   0.81150   1.000
    O695    O    0.28427   0.47070   0.81150   1.000
    O696    O    0.46573   0.22070   0.06150   1.000
    O697    O    0.53427   0.77930   0.06150   1.000
    O698    O    0.71573   0.02930   0.31150   1.000
    O699    O    0.78427   0.47070   0.31150   1.000
    O700    O    0.96573   0.72070   0.06150   1.000
    O701    O    0.03427   0.27930   0.06150   1.000
    O702    O    0.21573   0.52930   0.31150   1.000
    O703    O    0.28427   0.97070   0.31150   1.000
    O704    O    0.46573   0.72070   0.56150   1.000
    O705    O    0.53427   0.27930   0.56150   1.000
    O706    O    0.71573   0.52930   0.81150   1.000
    O707    O    0.78427   0.97070   0.81150   1.000
    H708    H    0.04860   0.78970   0.53340   1.000
    H709    H    0.20140   0.03970   0.78340   1.000
    H710    H    0.29860   0.46030   0.78340   1.000
    H711    H    0.45140   0.21030   0.03340   1.000
    H712    H    0.54860   0.78970   0.03340   1.000
    H713    H    0.70140   0.03970   0.28340   1.000
    H714    H    0.79860   0.46030   0.28340   1.000
    H715    H    0.95140   0.71030   0.03340   1.000
    H716    H    0.04860   0.28970   0.03340   1.000
    H717    H    0.20140   0.53970   0.28340   1.000
    H718    H    0.29860   0.96030   0.28340   1.000
    H719    H    0.45140   0.71030   0.53340   1.000
    H720    H    0.54860   0.28970   0.53340   1.000
    H721    H    0.70140   0.53970   0.78340   1.000
    H722    H    0.79860   0.96030   0.78340   1.000
    C723    C    0.93800   0.65450   0.53430   1.000
    C724    C    0.31200   0.90450   0.78430   1.000
    C725    C    0.18800   0.59550   0.78430   1.000
    C726    C    0.56200   0.34550   0.03430   1.000
    C727    C    0.43800   0.65450   0.03430   1.000
    C728    C    0.81200   0.90450   0.28430   1.000
    C729    C    0.68800   0.59550   0.28430   1.000
    C730    C    0.06200   0.84550   0.03430   1.000
    C731    C    0.93800   0.15450   0.03430   1.000
    C732    C    0.31200   0.40450   0.28430   1.000
    C733    C    0.18800   0.09550   0.28430   1.000
    C734    C    0.56200   0.84550   0.53430   1.000
    C735    C    0.43800   0.15450   0.53430   1.000
    C736    C    0.81200   0.40450   0.78430   1.000
    C737    C    0.68800   0.09550   0.78430   1.000
    O738    O    0.03156   0.88120   0.55800   1.000
    O739    O    0.21844   0.13120   0.80800   1.000
    O740    O    0.28156   0.36880   0.80800   1.000
    O741    O    0.46844   0.11880   0.05800   1.000
    O742    O    0.53156   0.88120   0.05800   1.000
    O743    O    0.71844   0.13120   0.30800   1.000
    O744    O    0.78156   0.36880   0.30800   1.000
    O745    O    0.96844   0.61880   0.05800   1.000
    O746    O    0.03156   0.38120   0.05800   1.000
    O747    O    0.21844   0.63120   0.30800   1.000
    O748    O    0.28156   0.86880   0.30800   1.000
    O749    O    0.46844   0.61880   0.55800   1.000
    O750    O    0.53156   0.38120   0.55800   1.000
    O751    O    0.71844   0.63120   0.80800   1.000
    O752    O    0.78156   0.86880   0.80800   1.000
    C753    C    0.00010   0.77260   0.28830   1.000
    C754    C    0.24990   0.02260   0.53830   1.000
    C755    C    0.25010   0.47740   0.53830   1.000
    C756    C    0.49990   0.22740   0.78830   1.000
    C757    C    0.50010   0.77260   0.78830   1.000
    C758    C    0.74990   0.02260   0.03830   1.000
    C759    C    0.75010   0.47740   0.03830   1.000
    C760    C    0.99990   0.72740   0.78830   1.000
    C761    C    0.00010   0.27260   0.78830   1.000
    C762    C    0.24990   0.52260   0.03830   1.000
    C763    C    0.25010   0.97740   0.03830   1.000
    C764    C    0.49990   0.72740   0.28830   1.000
    C765    C    0.50010   0.27260   0.28830   1.000
    C766    C    0.74990   0.52260   0.53830   1.000
    C767    C    0.75010   0.97740   0.53830   1.000
loop_
    _geom_bond_atom_site_label_1
    _geom_bond_atom_site_label_2
    _geom_bond_distance
    _geom_bond_site_symmetry_2
    _ccdc_geom_bond_type
    O286   C758      1.28388      .   S
    O286   Zr113     2.17418  1_554   S
    O287   C759      1.28388      .   S
    O287   Zr112     2.17418  1_554   S
    O290   C762      1.28388      .   S
    O290   Zr101     2.17418  1_554   S
    O291   C763      1.28388      .   S
    O291   Zr100     2.17418  1_554   S
    O544   C731      1.26099      .   S
    O544   Zr77      2.24497  1_655   S
    O543   C730      1.26099      .   S
    O543   Zr76      2.24497  1_455   S
    O540   C727      1.26099      .   S
    O540   Zr73      2.24497      .   S
    O539   C726      1.26099      .   S
    O539   Zr72      2.24497      .   S
    O441   C763      1.27840  1_545   S
    O440   C762      1.27840      .   S
    O437   C759      1.27840      .   S
    O436   C758      1.27840  1_565   S
    H712   O697      1.00159      .   S
    H716   O701      1.00159      .   S
    H711   O696      1.00159      .   S
    H715   O700      1.00159      .   S
    O237   C552      1.26773      .   S
    O250   C565      1.26773      .   S
    O249   C564      1.26773      .   S
    O238   C553      1.26773      .   S
    C726   O464      1.27529      .   S
    C727   O465      1.27529      .   S
    C730   O468      1.27529      .   S
    C731   O469      1.27529      .   S
    O189   C522      1.25313      .   S
    O429   C534      1.25313      .   S
    O430   C535      1.25313      .   S
    O418   C523      1.25313      .   S
    C552   O222      1.26140      .   S
    C553   O223      1.26140      .   S
    C564   O234      1.26140      .   S
    C565   O235      1.26140      .   S
    C535   O190      1.27282      .   S
    C534   O57       1.27282      .   S
    C523   O180      1.27282      .   S
    C522   O179      1.27282      .   S
    O746   C574      1.25436      .   S
    O741   C569      1.25436      .   S
    O742   C570      1.25436      .   S
    O745   C573      1.25436      .   S
    Zr77   O701      2.23054      .   S
    Zr77   O656      2.04619  1_455   S
    Zr76   O700      2.23054      .   S
    Zr76   O655      2.04619  1_655   S
    Zr73   O697      2.23054      .   S
    Zr73   O652      2.04619      .   S
    Zr72   O696      2.23054      .   S
    Zr72   O651      2.04619      .   S
    C574   O351      1.26166      .   S
    C573   O350      1.26166      .   S
    C570   O347      1.26166      .   S
    C569   O346      1.26166      .   S
    O464   Zr136     2.21144      .   S
    O465   Zr137     2.21144      .   S
    O468   Zr140     2.21144      .   S
    O469   Zr141     2.21144      .   S
    Zr121  O670      2.23786      .   S
    Zr121  O170      2.07339  1_455   S
    Zr121  O410      2.19862  1_554   S
    Zr117  O666      2.23786      .   S
    Zr117  O166      2.07339      .   S
    Zr117  O406      2.19862  1_554   S
    Zr118  O667      2.23786      .   S
    Zr118  O167      2.07339      .   S
    Zr118  O407      2.19862  1_554   S
    Zr122  O671      2.23786      .   S
    Zr122  O171      2.07339  1_655   S
    Zr122  O411      2.19862  1_554   S
    O656   Zr141     2.03365      .   S
    O655   Zr140     2.03365      .   S
    O652   Zr137     2.03365      .   S
    O651   Zr136     2.03365      .   S
    O235   Zr91      2.22163      .   S
    O234   Zr88      2.22163      .   S
    O223   Zr87      2.22163      .   S
    O222   Zr92      2.22163      .   S
    O179   Zr137     2.18437      .   S
    O190   Zr136     2.18437      .   S
    O57    Zr141     2.18437      .   S
    O180   Zr140     2.18437      .   S
    O346   Zr87      2.20954      .   S
    O347   Zr88      2.20954      .   S
    O350   Zr91      2.20954      .   S
    O351   Zr92      2.20954      .   S
    H213   O198      0.99990      .   S
    H210   O195      0.99990      .   S
    H209   O194      0.99990      .   S
    H214   O199      0.99990      .   S
    O195   Zr103     2.22841      .   S
    O198   Zr106     2.22841  1_455   S
    O194   Zr102     2.22841      .   S
    O199   Zr107     2.22841  1_655   S
    O152   Zr88      2.07127      .   S
    O152   Zr103     2.06761      .   S
    O151   Zr87      2.07127      .   S
    O151   Zr102     2.06761      .   S
    O155   Zr91      2.07127      .   S
    O155   Zr106     2.06761      .   S
    O156   Zr92      2.07127      .   S
    O156   Zr107     2.06761      .   S
    Zr141  O304      2.20252      .   S
    Zr141  O317      2.21385      .   S
    Zr141  O642      2.03960      .   S
    Zr140  O303      2.20252      .   S
    Zr140  O320      2.21385      .   S
    Zr140  O641      2.03960      .   S
    Zr137  O300      2.20252      .   S
    Zr137  O321      2.21385      .   S
    Zr137  O638      2.03960      .   S
    Zr136  O299      2.20252      .   S
    Zr136  O316      2.21385      .   S
    Zr136  O637      2.03960      .   S
    Zr92   O171      2.07096      .   S
    Zr92   O276      2.21872      .   S
    Zr92   O454      2.20215      .   S
    Zr91   O170      2.07096      .   S
    Zr91   O271      2.21872      .   S
    Zr91   O453      2.20215      .   S
    Zr87   O166      2.07096      .   S
    Zr87   O275      2.21872      .   S
    Zr87   O449      2.20215      .   S
    Zr88   O167      2.07096      .   S
    Zr88   O272      2.21872      .   S
    Zr88   O450      2.20215      .   S
    O671   H686      1.00052      .   S
    O667   H682      1.00052      .   S
    O670   H685      1.00052      .   S
    O666   H681      1.00052      .   S
    O299   C494      1.27742      .   S
    O300   C495      1.27742      .   S
    O303   C498      1.27742      .   S
    O304   C499      1.27742      .   S
    O276   C606      1.26311      .   S
    O275   C605      1.26311      .   S
    O271   C601      1.26311      .   S
    O272   C602      1.26311      .   S
    O316   C616      1.26042      .   S
    O321   C330      1.26042      .   S
    O320   C329      1.26042      .   S
    O317   C617      1.26042      .   S
    O642   Zr62      2.05329      .   S
    O637   Zr0       2.05329      .   S
    O638   Zr58      2.05329      .   S
    O641   Zr61      2.05329      .   S
    Zr103  O377      2.23529      .   S
    Zr103  O292      2.17418      .   S
    Zr102  O376      2.23529      .   S
    Zr102  O293      2.17418      .   S
    Zr106  O380      2.23529      .   S
    Zr106  O281      2.17418      .   S
    Zr107  O381      2.23529      .   S
    Zr107  O16       2.17418      .   S
    O449   C584      1.25115      .   S
    O450   C585      1.25115      .   S
    O453   C588      1.25115      .   S
    O454   C589      1.25115      .   S
    C602   O132      1.26863      .   S
    C606   O338      1.26863      .   S
    C605   O337      1.26863      .   S
    C601   O131      1.26863      .   S
    C494   O361      1.24178      .   S
    C495   O362      1.24178      .   S
    C499   O366      1.24178      .   S
    C498   O365      1.24178      .   S
    Zr58   O480      2.25084      .   S
    Zr62   O484      2.25084  1_655   S
    Zr61   O483      2.25084  1_455   S
    Zr0    O479      2.25084      .   S
    O376   H391      0.99793      .   S
    O377   H392      0.99793      .   S
    O380   H395      0.99793      .   S
    O381   H396      0.99793      .   S
    C617   O257      1.25764      .   S
    C330   O261      1.25764      .   S
    C329   O260      1.25764      .   S
    C616   O256      1.25764      .   S
    C585   O480      1.25874      .   S
    C589   O484      1.25874      .   S
    C584   O479      1.25874      .   S
    C588   O483      1.25874      .   S
    C628   O516      1.28769  1_565   S
    C628   O413      1.28267      .   S
    C624   O512      1.28769      .   S
    C624   O409      1.28267      .   S
    C623   O511      1.28769  1_545   S
    C623   O408      1.28267      .   S
    C627   O515      1.28769      .   S
    C627   O412      1.28267      .   S
    O409   Zr120     2.19862      .   S
    O412   Zr123     2.19862      .   S
    O413   Zr124     2.19862      .   S
    O408   Zr119     2.19862      .   S
    O16    C49       1.28388  1_455   S
    O293   C765      1.28388      .   S
    O292   C764      1.28388      .   S
    O281   C753      1.28388  1_655   S
    O545   C732      1.26099      .   S
    O545   Zr78      2.24497      .   S
    O542   C729      1.26099      .   S
    O542   Zr75      2.24497      .   S
    O541   C728      1.26099      .   S
    O541   Zr74      2.24497      .   S
    O546   C733      1.26099      .   S
    O546   Zr79      2.24497      .   S
    O27    C49       1.27840      .   S
    O431   C753      1.27840      .   S
    O442   C764      1.27840      .   S
    O443   C765      1.27840      .   S
    H713   O698      1.00159      .   S
    H714   O699      1.00159      .   S
    H717   O702      1.00159      .   S
    H718   O703      1.00159      .   S
    C732   O470      1.27529      .   S
    C728   O466      1.27529      .   S
    C729   O467      1.27529      .   S
    C733   O471      1.27529      .   S
    O239   C554      1.26773      .   S
    O240   C555      1.26773      .   S
    O243   C558      1.26773      .   S
    O244   C559      1.26773      .   S
    O420   C525      1.25313      .   S
    O419   C524      1.25313      .   S
    O423   C528      1.25313      .   S
    O424   C529      1.25313      .   S
    C558   O228      1.26140      .   S
    C555   O225      1.26140      .   S
    C554   O224      1.26140      .   S
    C559   O229      1.26140      .   S
    C524   O181      1.27282      .   S
    C528   O185      1.27282      .   S
    C525   O182      1.27282      .   S
    C529   O186      1.27282      .   S
    O747   C575      1.25436      .   S
    O748   C576      1.25436      .   S
    O744   C572      1.25436      .   S
    O743   C571      1.25436      .   S
    Zr74   O698      2.23054  1_565   S
    Zr74   O653      2.04619      .   S
    Zr75   O699      2.23054      .   S
    Zr75   O654      2.04619      .   S
    Zr78   O702      2.23054      .   S
    Zr78   O657      2.04619      .   S
    Zr79   O703      2.23054  1_545   S
    Zr79   O658      2.04619      .   S
    C572   O349      1.26166      .   S
    C576   O353      1.26166      .   S
    C575   O352      1.26166      .   S
    C571   O348      1.26166      .   S
    O471   Zr143     2.21144      .   S
    O470   Zr142     2.21144      .   S
    O467   Zr139     2.21144      .   S
    O466   Zr138     2.21144      .   S
    Zr123  O672      2.23786      .   S
    Zr123  O172      2.07339      .   S
    Zr124  O673      2.23786      .   S
    Zr124  O173      2.07339      .   S
    Zr120  O669      2.23786      .   S
    Zr120  O169      2.07339      .   S
    Zr119  O668      2.23786      .   S
    Zr119  O168      2.07339      .   S
    O658   Zr143     2.03365      .   S
    O653   Zr138     2.03365      .   S
    O654   Zr139     2.03365      .   S
    O657   Zr142     2.03365      .   S
    O228   Zr90      2.22163      .   S
    O229   Zr93      2.22163      .   S
    O225   Zr89      2.22163  1_565   S
    O224   Zr94      2.22163  1_545   S
    O181   Zr139     2.18437      .   S
    O182   Zr142     2.18437      .   S
    O185   Zr143     2.18437  1_565   S
    O186   Zr138     2.18437  1_545   S
    O353   Zr94      2.20954      .   S
    O352   Zr93      2.20954      .   S
    O348   Zr89      2.20954      .   S
    O349   Zr90      2.20954      .   S
    H211   O196      0.99990      .   S
    H215   O200      0.99990      .   S
    H216   O201      0.99990      .   S
    H212   O197      0.99990      .   S
    O197   Zr105     2.22841      .   S
    O196   Zr104     2.22841      .   S
    O201   Zr109     2.22841      .   S
    O200   Zr108     2.22841      .   S
    O157   Zr93      2.07127      .   S
    O157   Zr108     2.06761      .   S
    O154   Zr90      2.07127      .   S
    O154   Zr105     2.06761      .   S
    O153   Zr89      2.07127  1_565   S
    O153   Zr104     2.06761      .   S
    O158   Zr94      2.07127  1_545   S
    O158   Zr109     2.06761      .   S
    Zr139  O302      2.20252      .   S
    Zr139  O323      2.21385      .   S
    Zr139  O640      2.03960      .   S
    Zr142  O305      2.20252      .   S
    Zr142  O322      2.21385      .   S
    Zr142  O643      2.03960      .   S
    Zr138  O301      2.20252      .   S
    Zr138  O18       2.21385  1_565   S
    Zr138  O639      2.03960      .   S
    Zr143  O306      2.20252      .   S
    Zr143  O311      2.21385  1_545   S
    Zr143  O644      2.03960      .   S
    Zr94   O173      2.07096      .   S
    Zr94   O278      2.21872  1_565   S
    Zr94   O456      2.20215      .   S
    Zr93   O172      2.07096      .   S
    Zr93   O15       2.21872      .   S
    Zr93   O455      2.20215      .   S
    Zr90   O169      2.07096      .   S
    Zr90   O266      2.21872      .   S
    Zr90   O452      2.20215      .   S
    Zr89   O168      2.07096      .   S
    Zr89   O277      2.21872  1_545   S
    Zr89   O451      2.20215      .   S
    O673   H688      1.00052      .   S
    O672   H687      1.00052      .   S
    O669   H684      1.00052      .   S
    O668   H683      1.00052      .   S
    O305   C500      1.27742      .   S
    O301   C496      1.27742      .   S
    O306   C501      1.27742      .   S
    O302   C497      1.27742      .   S
    O15    C38       1.26311      .   S
    O266   C596      1.26311      .   S
    O277   C607      1.26311      .   S
    O278   C608      1.26311      .   S
    O18    C39       1.26042      .   S
    O322   C331      1.26042      .   S
    O323   C332      1.26042      .   S
    O311   C611      1.26042      .   S
    O644   Zr64      2.05329  1_545   S
    O643   Zr63      2.05329      .   S
    O640   Zr60      2.05329      .   S
    O639   Zr59      2.05329  1_565   S
    Zr105  O379      2.23529      .   S
    Zr105  O294      2.17418      .   S
    Zr104  O378      2.23529  1_565   S
    Zr104  O295      2.17418      .   S
    Zr108  O382      2.23529      .   S
    Zr108  O283      2.17418      .   S
    Zr109  O383      2.23529  1_545   S
    Zr109  O282      2.17418      .   S
    O451   C586      1.25115      .   S
    O452   C587      1.25115      .   S
    O455   C590      1.25115      .   S
    O456   C591      1.25115      .   S
    C38    O20       1.26863      .   S
    C608   O340      1.26863      .   S
    C596   O326      1.26863      .   S
    C607   O339      1.26863      .   S
    C500   O367      1.24178      .   S
    C497   O364      1.24178      .   S
    C496   O363      1.24178      .   S
    C501   O368      1.24178      .   S
    Zr60   O482      2.25084      .   S
    Zr59   O481      2.25084      .   S
    Zr63   O485      2.25084      .   S
    Zr64   O486      2.25084      .   S
    O379   H394      0.99793      .   S
    O378   H393      0.99793      .   S
    O383   H398      0.99793      .   S
    O382   H397      0.99793      .   S
    C39    O14       1.25764      .   S
    C611   O251      1.25764      .   S
    C332   O263      1.25764      .   S
    C331   O262      1.25764      .   S
    C586   O481      1.25874      .   S
    C587   O482      1.25874      .   S
    C590   O485      1.25874      .   S
    C591   O486      1.25874      .   S
    C40    O32       1.28769  1_455   S
    C40    O25       1.28267      .   S
    C630   O518      1.28769      .   S
    C630   O415      1.28267      .   S
    C629   O517      1.28769      .   S
    C629   O414      1.28267      .   S
    C618   O506      1.28769  1_655   S
    C618   O403      1.28267      .   S
    O25    Zr5       2.19862      .   S
    O403   Zr114     2.19862      .   S
    O414   Zr125     2.19862      .   S
    O415   Zr126     2.19862      .   S
    O283   C755      1.28388      .   S
    O282   C754      1.28388      .   S
    O294   C766      1.28388      .   S
    O295   C767      1.28388      .   S
    O34    C47       1.26099      .   S
    O34    Zr2       2.24497  1_455   S
    O547   C734      1.26099      .   S
    O547   Zr80      2.24497      .   S
    O548   C735      1.26099      .   S
    O548   Zr81      2.24497      .   S
    O536   C723      1.26099      .   S
    O536   Zr69      2.24497  1_655   S
    O432   C754      1.27840  1_565   S
    O433   C755      1.27840      .   S
    O444   C766      1.27840      .   S
    O445   C767      1.27840  1_545   S
    H46    O45       1.00159      .   S
    H720   O705      1.00159      .   S
    H708   O693      1.00159      .   S
    H719   O704      1.00159      .   S
    C723   O461      1.27529      .   S
    O242   C557      1.26773      .   S
    O246   C561      1.26773      .   S
    C47    O29       1.27529      .   S
    C735   O473      1.27529      .   S
    O245   C560      1.26773      .   S
    C734   O472      1.27529      .   S
    O241   C556      1.26773      .   S
    O422   C527      1.25313      .   S
    O425   C530      1.25313      .   S
    O426   C531      1.25313      .   S
    O421   C526      1.25313      .   S
    C556   O226      1.26140      .   S
    C557   O227      1.26140      .   S
    C560   O230      1.26140      .   S
    C561   O231      1.26140      .   S
    C526   O183      1.27282      .   S
    C527   O184      1.27282      .   S
    C530   O187      1.27282      .   S
    C531   O54       1.27282      .   S
    O48    C36       1.25436      .   S
    O749   C577      1.25436      .   S
    O750   C578      1.25436      .   S
    O738   C566      1.25436      .   S
    Zr2    O45       2.23054      .   S
    Zr2    O42       2.04619  1_655   S
    Zr69   O693      2.23054      .   S
    Zr69   O649      2.04619  1_455   S
    Zr80   O704      2.23054      .   S
    Zr80   O659      2.04619      .   S
    Zr81   O705      2.23054      .   S
    Zr81   O660      2.04619      .   S
    C36    O21       1.26166      .   S
    C566   O343      1.26166      .   S
    C577   O354      1.26166      .   S
    C578   O355      1.26166      .   S
    O29    Zr6       2.21144      .   S
    O472   Zr144     2.21144      .   S
    O461   Zr133     2.21144      .   S
    O473   Zr145     2.21144      .   S
    Zr5    O43       2.23786      .   S
    Zr5    O8        2.07339  1_455   S
    Zr114  O663      2.23786      .   S
    Zr114  O163      2.07339  1_655   S
    Zr125  O674      2.23786      .   S
    Zr125  O174      2.07339      .   S
    Zr126  O675      2.23786      .   S
    Zr126  O175      2.07339      .   S
    O42    Zr6       2.03365      .   S
    O659   Zr144     2.03365      .   S
    O660   Zr145     2.03365      .   S
    O649   Zr133     2.03365      .   S
    O230   Zr84      2.22163      .   S
    O226   Zr96      2.22163      .   S
    O227   Zr3       2.22163      .   S
    O231   Zr95      2.22163      .   S
    O187   Zr145     2.18437      .   S
    O183   Zr133     2.18437      .   S
    O184   Zr144     2.18437      .   S
    O54    Zr6       2.18437      .   S
    O21    Zr3       2.20954      .   S
    O355   Zr96      2.20954      .   S
    O343   Zr84      2.20954      .   S
    O354   Zr95      2.20954      .   S
    H11    O10       0.99990      .   S
    H218   O203      0.99990      .   S
    H217   O202      0.99990      .   S
    H206   O191      0.99990      .   S
    O10    Zr4       2.22841  1_455   S
    O203   Zr111     2.22841      .   S
    O191   Zr99      2.22841  1_655   S
    O202   Zr110     2.22841      .   S
    O7     Zr3       2.07127      .   S
    O7     Zr4       2.06761      .   S
    O160   Zr96      2.07127      .   S
    O160   Zr111     2.06761      .   S
    O159   Zr95      2.07127      .   S
    O159   Zr110     2.06761      .   S
    O148   Zr84      2.07127      .   S
    O148   Zr99      2.06761      .   S
    Zr6    O17       2.20252      .   S
    Zr6    O312      2.21385      .   S
    Zr6    O41       2.03960      .   S
    Zr144  O307      2.20252      .   S
    Zr144  O324      2.21385      .   S
    Zr144  O645      2.03960      .   S
    Zr133  O296      2.20252      .   S
    Zr133  O325      2.21385      .   S
    Zr133  O634      2.03960      .   S
    Zr145  O308      2.20252      .   S
    Zr145  O313      2.21385      .   S
    Zr145  O646      2.03960      .   S
    Zr3    O8        2.07096      .   S
    Zr3    O279      2.21872      .   S
    Zr3    O28       2.20215      .   S
    Zr96   O175      2.07096      .   S
    Zr96   O280      2.21872      .   S
    Zr96   O458      2.20215      .   S
    Zr84   O163      2.07096      .   S
    Zr84   O268      2.21872      .   S
    Zr84   O446      2.20215      .   S
    Zr95   O174      2.07096      .   S
    Zr95   O267      2.21872      .   S
    Zr95   O457      2.20215      .   S
    O43    H44       1.00052      .   S
    O675   H690      1.00052      .   S
    O674   H689      1.00052      .   S
    O663   H678      1.00052      .   S
    O17    C31       1.27742      .   S
    O296   C491      1.27742      .   S
    O307   C502      1.27742      .   S
    O308   C503      1.27742      .   S
    O279   C609      1.26311      .   S
    O280   C610      1.26311      .   S
    O267   C597      1.26311      .   S
    O268   C598      1.26311      .   S
    O312   C612      1.26042      .   S
    O324   C333      1.26042      .   S
    O325   C334      1.26042      .   S
    O313   C613      1.26042      .   S
    O41    Zr19      2.05329      .   S
    O634   Zr52      2.05329      .   S
    O645   Zr65      2.05329      .   S
    O646   Zr66      2.05329      .   S
    Zr4    O23       2.23529      .   S
    Zr4    O289      2.17418      .   S
    Zr110  O384      2.23529      .   S
    Zr110  O285      2.17418      .   S
    Zr111  O385      2.23529      .   S
    Zr111  O284      2.17418      .   S
    Zr99   O373      2.23529      .   S
    Zr99   O288      2.17418      .   S
    O28    C37       1.25115      .   S
    O446   C581      1.25115      .   S
    O457   C592      1.25115      .   S
    O458   C593      1.25115      .   S
    C597   O127      1.26863      .   S
    C610   O342      1.26863      .   S
    C598   O128      1.26863      .   S
    C609   O341      1.26863      .   S
    C503   O370      1.24178      .   S
    C31    O22       1.24178      .   S
    C491   O358      1.24178      .   S
    C502   O369      1.24178      .   S
    Zr19   O30       2.25084  1_455   S
    Zr52   O476      2.25084  1_655   S
    Zr65   O487      2.25084      .   S
    Zr66   O488      2.25084      .   S
    O23    H24       0.99793      .   S
    O385   H400      0.99793      .   S
    O373   H388      0.99793      .   S
    O384   H399      0.99793      .   S
    C612   O252      1.25764      .   S
    C613   O253      1.25764      .   S
    C333   O264      1.25764      .   S
    C334   O265      1.25764      .   S
    C592   O487      1.25874      .   S
    C37    O30       1.25874      .   S
    C593   O488      1.25874      .   S
    C581   O476      1.25874      .   S
    C620   O508      1.28769      .   S
    C620   O405      1.28267      .   S
    C619   O507      1.28769  1_545   S
    C619   O404      1.28267      .   S
    C631   O519      1.28769      .   S
    C631   O416      1.28267      .   S
    C632   O520      1.28769  1_565   S
    C632   O417      1.28267      .   S
    O416   Zr50      2.19862      .   S
    O417   Zr51      2.19862      .   S
    O404   Zr115     2.19862      .   S
    O405   Zr116     2.19862      .   S
    O285   C757      1.28388      .   S
    O289   C761      1.28388  1_655   S
    O288   C760      1.28388  1_455   S
    O284   C756      1.28388      .   S
    O538   C725      1.26099      .   S
    O538   Zr71      2.24497      .   S
    O549   C736      1.26099      .   S
    O549   Zr82      2.24497      .   S
    O550   C737      1.26099      .   S
    O550   Zr83      2.24497      .   S
    O537   C724      1.26099      .   S
    O537   Zr70      2.24497      .   S
    O438   C760      1.27840      .   S
    O434   C756      1.27840      .   S
    O439   C761      1.27840      .   S
    O435   C757      1.27840      .   S
    H709   O694      1.00159      .   S
    H710   O695      1.00159      .   S
    H721   O706      1.00159      .   S
    H722   O707      1.00159      .   S
    C737   O475      1.27529      .   S
    O13    C35       1.26773      .   S
    C724   O462      1.27529      .   S
    C725   O463      1.27529      .   S
    C736   O474      1.27529      .   S
    O236   C551      1.26773      .   S
    O247   C562      1.26773      .   S
    O248   C563      1.26773      .   S
    O26    C33       1.25313      .   S
    O427   C532      1.25313      .   S
    O428   C533      1.25313      .   S
    O188   C521      1.25313      .   S
    C562   O232      1.26140      .   S
    C551   O221      1.26140      .   S
    C35    O12       1.26140      .   S
    C563   O233      1.26140      .   S
    C33    O9        1.27282      .   S
    C533   O56       1.27282      .   S
    C521   O178      1.27282      .   S
    C532   O55       1.27282      .   S
    O740   C568      1.25436      .   S
    O751   C579      1.25436      .   S
    O739   C567      1.25436      .   S
    O752   C580      1.25436      .   S
    Zr83   O707      2.23054  1_545   S
    Zr83   O662      2.04619      .   S
    Zr70   O694      2.23054  1_565   S
    Zr70   O633      2.04619      .   S
    Zr71   O695      2.23054      .   S
    Zr71   O650      2.04619      .   S
    Zr82   O706      2.23054      .   S
    Zr82   O661      2.04619      .   S
    C567   O344      1.26166      .   S
    C568   O345      1.26166      .   S
    C579   O356      1.26166      .   S
    C580   O357      1.26166      .   S
    O463   Zr135     2.21144      .   S
    O474   Zr146     2.21144      .   S
    O475   Zr147     2.21144      .   S
    O462   Zr134     2.21144      .   S
    Zr116  O665      2.23786      .   S
    Zr116  O165      2.07339      .   S
    Zr115  O664      2.23786      .   S
    Zr115  O164      2.07339      .   S
    Zr50   O676      2.23786      .   S
    Zr50   O176      2.07339      .   S
    Zr51   O677      2.23786      .   S
    Zr51   O177      2.07339      .   S
    O633   Zr134     2.03365      .   S
    O650   Zr135     2.03365      .   S
    O661   Zr146     2.03365      .   S
    O662   Zr147     2.03365      .   S
    O12    Zr98      2.22163  1_545   S
    O221   Zr85      2.22163  1_565   S
    O233   Zr97      2.22163      .   S
    O232   Zr86      2.22163      .   S
    O9     Zr135     2.18437      .   S
    O56    Zr134     2.18437  1_545   S
    O55    Zr147     2.18437  1_565   S
    O178   Zr146     2.18437      .   S
    O357   Zr98      2.20954      .   S
    O356   Zr97      2.20954      .   S
    O345   Zr86      2.20954      .   S
    O344   Zr85      2.20954      .   S
    H207   O192      0.99990      .   S
    H208   O193      0.99990      .   S
    H219   O204      0.99990      .   S
    H220   O205      0.99990      .   S
    O205   Zr113     2.22841      .   S
    O204   Zr112     2.22841      .   S
    O192   Zr100     2.22841      .   S
    O193   Zr101     2.22841      .   S
    O161   Zr97      2.07127      .   S
    O161   Zr112     2.06761      .   S
    O150   Zr86      2.07127      .   S
    O150   Zr101     2.06761      .   S
    O149   Zr85      2.07127  1_565   S
    O149   Zr100     2.06761      .   S
    O162   Zr98      2.07127  1_545   S
    O162   Zr113     2.06761      .   S
    Zr134  O297      2.20252      .   S
    Zr134  O314      2.21385  1_565   S
    Zr134  O635      2.03960      .   S
    Zr135  O298      2.20252      .   S
    Zr135  O319      2.21385      .   S
    Zr135  O636      2.03960      .   S
    Zr146  O309      2.20252      .   S
    Zr146  O318      2.21385      .   S
    Zr146  O647      2.03960      .   S
    Zr147  O310      2.20252      .   S
    Zr147  O315      2.21385  1_545   S
    Zr147  O648      2.03960      .   S
    Zr98   O177      2.07096      .   S
    Zr98   O274      2.21872  1_565   S
    Zr98   O460      2.20215      .   S
    Zr97   O176      2.07096      .   S
    Zr97   O269      2.21872      .   S
    Zr97   O459      2.20215      .   S
    Zr86   O165      2.07096      .   S
    Zr86   O270      2.21872      .   S
    Zr86   O448      2.20215      .   S
    Zr85   O164      2.07096      .   S
    Zr85   O273      2.21872  1_545   S
    Zr85   O447      2.20215      .   S
    O676   H691      1.00052      .   S
    O677   H692      1.00052      .   S
    O665   H680      1.00052      .   S
    O664   H679      1.00052      .   S
    O310   C505      1.27742      .   S
    O309   C504      1.27742      .   S
    O298   C493      1.27742      .   S
    O297   C492      1.27742      .   S
    O274   C604      1.26311      .   S
    O273   C603      1.26311      .   S
    O270   C600      1.26311      .   S
    O269   C599      1.26311      .   S
    O319   C328      1.26042      .   S
    O315   C615      1.26042      .   S
    O318   C327      1.26042      .   S
    O314   C614      1.26042      .   S
    O636   Zr1       2.05329      .   S
    O647   Zr67      2.05329      .   S
    O648   Zr68      2.05329  1_545   S
    O635   Zr53      2.05329  1_565   S
    Zr113  O387      2.23529  1_545   S
    Zr112  O386      2.23529      .   S
    Zr101  O375      2.23529      .   S
    Zr100  O374      2.23529  1_565   S
    O447   C582      1.25115      .   S
    O460   C595      1.25115      .   S
    O448   C583      1.25115      .   S
    O459   C594      1.25115      .   S
    C604   O336      1.26863      .   S
    C603   O335      1.26863      .   S
    C600   O130      1.26863      .   S
    C599   O129      1.26863      .   S
    C505   O372      1.24178      .   S
    C504   O371      1.24178      .   S
    C493   O360      1.24178      .   S
    C492   O359      1.24178      .   S
    Zr68   O490      2.25084      .   S
    Zr67   O489      2.25084      .   S
    Zr1    O478      2.25084      .   S
    Zr53   O477      2.25084      .   S
    O386   H401      0.99793      .   S
    O387   H402      0.99793      .   S
    O375   H390      0.99793      .   S
    O374   H389      0.99793      .   S
    C615   O255      1.25764      .   S
    C614   O254      1.25764      .   S
    C327   O258      1.25764      .   S
    C328   O259      1.25764      .   S
    C583   O478      1.25874      .   S
    C594   O489      1.25874      .   S
    C595   O490      1.25874      .   S
    C582   O477      1.25874      .   S
    C622   O510      1.28769      .   S
    C622   O407      1.28267      .   S
    C626   O514      1.28769  1_655   S
    C626   O411      1.28267      .   S
    C621   O509      1.28769      .   S
    C621   O406      1.28267      .   S
    C625   O513      1.28769  1_455   S
    C625   O410      1.28267      .   S
    O7     Zr2       2.07970      .   S
    O8     Zr19      2.07838  1_655   S
    O10    Zr2       2.24090  1_455   S
    O10    Zr6       2.31787      .   S
    O13    Zr83      2.25711      .   S
    O14    Zr59      2.28985      .   S
    O20    Zr108     2.24427      .   S
    O22    Zr4       2.28446  1_455   S
    O23    Zr19      2.24038  1_655   S
    O23    Zr3       2.24669      .   S
    O26    Zr116     2.31653      .   S
    O27    Zr62      2.26690      .   S
    O32    Zr2       2.25457      .   S
    O41    Zr4       2.07313  1_455   S
    O42    Zr5       2.07056      .   S
    O43    Zr19      2.25091      .   S
    O43    Zr6       2.33901      .   S
    O45    Zr3       2.24590      .   S
    O45    Zr5       2.24168  1_655   S
    O48    Zr5       2.27264  1_655   S
    O148   Zr69      2.07970      .   S
    O149   Zr70      2.07970      .   S
    O150   Zr71      2.07970      .   S
    O151   Zr72      2.07970      .   S
    O152   Zr73      2.07970      .   S
    O153   Zr74      2.07970      .   S
    O154   Zr75      2.07970      .   S
    O155   Zr76      2.07970      .   S
    O156   Zr77      2.07970      .   S
    O157   Zr78      2.07970      .   S
    O158   Zr79      2.07970      .   S
    O159   Zr80      2.07970      .   S
    O160   Zr81      2.07970      .   S
    O161   Zr82      2.07970      .   S
    O162   Zr83      2.07970      .   S
    O163   Zr52      2.07838  1_455   S
    O164   Zr53      2.07838      .   S
    O165   Zr1       2.07838      .   S
    O166   Zr0       2.07838      .   S
    O167   Zr58      2.07838      .   S
    O168   Zr59      2.07838      .   S
    O169   Zr60      2.07838      .   S
    O170   Zr61      2.07838  1_655   S
    O171   Zr62      2.07838  1_455   S
    O172   Zr63      2.07838      .   S
    O173   Zr64      2.07838      .   S
    O174   Zr65      2.07838      .   S
    O175   Zr66      2.07838      .   S
    O176   Zr67      2.07838      .   S
    O177   Zr68      2.07838      .   S
    O191   Zr69      2.24090  1_655   S
    O191   Zr133     2.31787      .   S
    O192   Zr70      2.24090      .   S
    O192   Zr134     2.31787      .   S
    O193   Zr71      2.24090      .   S
    O193   Zr135     2.31787      .   S
    O194   Zr72      2.24090      .   S
    O194   Zr136     2.31787      .   S
    O195   Zr73      2.24090      .   S
    O195   Zr137     2.31787      .   S
    O196   Zr74      2.24090      .   S
    O196   Zr138     2.31787      .   S
    O197   Zr75      2.24090      .   S
    O197   Zr139     2.31787      .   S
    O198   Zr76      2.24090  1_455   S
    O198   Zr140     2.31787      .   S
    O199   Zr77      2.24090  1_655   S
    O199   Zr141     2.31787      .   S
    O200   Zr78      2.24090      .   S
    O200   Zr142     2.31787      .   S
    O201   Zr79      2.24090      .   S
    O201   Zr143     2.31787      .   S
    O202   Zr80      2.24090      .   S
    O202   Zr144     2.31787      .   S
    O203   Zr81      2.24090      .   S
    O203   Zr145     2.31787      .   S
    O204   Zr82      2.24090      .   S
    O204   Zr146     2.31787      .   S
    O205   Zr83      2.24090      .   S
    O205   Zr147     2.31787      .   S
    O236   Zr70      2.25711      .   S
    O237   Zr77      2.25711      .   S
    O238   Zr72      2.25711      .   S
    O239   Zr79      2.25711      .   S
    O240   Zr74      2.25711      .   S
    O241   Zr81      2.25711      .   S
    O242   Zr2       2.25711      .   S
    O243   Zr75      2.25711      .   S
    O244   Zr78      2.25711      .   S
    O245   Zr69      2.25711      .   S
    O246   Zr80      2.25711      .   S
    O247   Zr71      2.25711      .   S
    O248   Zr82      2.25711      .   S
    O249   Zr73      2.25711      .   S
    O250   Zr76      2.25711      .   S
    O251   Zr64      2.28985      .   S
    O252   Zr19      2.28985      .   S
    O253   Zr66      2.28985      .   S
    O254   Zr53      2.28985      .   S
    O255   Zr68      2.28985      .   S
    O256   Zr0       2.28985      .   S
    O257   Zr62      2.28985      .   S
    O258   Zr67      2.28985      .   S
    O259   Zr1       2.28985      .   S
    O260   Zr61      2.28985      .   S
    O261   Zr58      2.28985      .   S
    O262   Zr63      2.28985      .   S
    O263   Zr60      2.28985      .   S
    O264   Zr65      2.28985      .   S
    O265   Zr52      2.28985      .   S
    O326   Zr105     2.24427      .   S
    O127   Zr110     2.24427      .   S
    O128   Zr99      2.24427      .   S
    O129   Zr112     2.24427      .   S
    O130   Zr101     2.24427      .   S
    O131   Zr106     2.24427      .   S
    O132   Zr103     2.24427      .   S
    O335   Zr100     2.24427      .   S
    O336   Zr113     2.24427      .   S
    O337   Zr102     2.24427      .   S
    O338   Zr107     2.24427      .   S
    O339   Zr104     2.24427      .   S
    O340   Zr109     2.24427      .   S
    O341   Zr4       2.24427      .   S
    O342   Zr111     2.24427      .   S
    O358   Zr99      2.28446  1_655   S
    O359   Zr100     2.28446      .   S
    O360   Zr101     2.28446      .   S
    O361   Zr102     2.28446      .   S
    O362   Zr103     2.28446      .   S
    O363   Zr104     2.28446      .   S
    O364   Zr105     2.28446      .   S
    O365   Zr106     2.28446  1_455   S
    O366   Zr107     2.28446  1_655   S
    O367   Zr108     2.28446      .   S
    O368   Zr109     2.28446      .   S
    O369   Zr110     2.28446      .   S
    O370   Zr111     2.28446      .   S
    O371   Zr112     2.28446      .   S
    O372   Zr113     2.28446      .   S
    O373   Zr52      2.24038  1_455   S
    O373   Zr84      2.24669      .   S
    O374   Zr53      2.24038      .   S
    O374   Zr85      2.24669      .   S
    O375   Zr1       2.24038      .   S
    O375   Zr86      2.24669      .   S
    O376   Zr0       2.24038      .   S
    O376   Zr87      2.24669      .   S
    O377   Zr58      2.24038      .   S
    O377   Zr88      2.24669      .   S
    O378   Zr59      2.24038      .   S
    O378   Zr89      2.24669      .   S
    O379   Zr60      2.24038      .   S
    O379   Zr90      2.24669      .   S
    O380   Zr61      2.24038  1_655   S
    O380   Zr91      2.24669      .   S
    O381   Zr62      2.24038  1_455   S
    O381   Zr92      2.24669      .   S
    O382   Zr63      2.24038      .   S
    O382   Zr93      2.24669      .   S
    O383   Zr64      2.24038      .   S
    O383   Zr94      2.24669      .   S
    O384   Zr65      2.24038      .   S
    O384   Zr95      2.24669      .   S
    O385   Zr66      2.24038      .   S
    O385   Zr96      2.24669      .   S
    O386   Zr67      2.24038      .   S
    O386   Zr97      2.24669      .   S
    O387   Zr68      2.24038      .   S
    O387   Zr98      2.24669      .   S
    O188   Zr50      2.31653      .   S
    O189   Zr118     2.31653      .   S
    O418   Zr121     2.31653      .   S
    O419   Zr120     2.31653      .   S
    O420   Zr123     2.31653      .   S
    O421   Zr114     2.31653      .   S
    O422   Zr125     2.31653      .   S
    O423   Zr124     2.31653      .   S
    O424   Zr119     2.31653      .   S
    O425   Zr126     2.31653      .   S
    O426   Zr5       2.31653      .   S
    O427   Zr51      2.31653      .   S
    O428   Zr115     2.31653      .   S
    O429   Zr122     2.31653      .   S
    O430   Zr117     2.31653      .   S
    O431   Zr61      2.26690      .   S
    O432   Zr64      2.26690      .   S
    O433   Zr63      2.26690      .   S
    O434   Zr66      2.26690      .   S
    O435   Zr65      2.26690      .   S
    O436   Zr68      2.26690  1_554   S
    O437   Zr67      2.26690  1_554   S
    O438   Zr52      2.26690      .   S
    O439   Zr19      2.26690      .   S
    O440   Zr1       2.26690  1_554   S
    O441   Zr53      2.26690  1_554   S
    O442   Zr58      2.26690      .   S
    O443   Zr0       2.26690      .   S
    O444   Zr60      2.26690      .   S
    O445   Zr59      2.26690      .   S
    O506   Zr69      2.25457      .   S
    O507   Zr70      2.25457      .   S
    O508   Zr71      2.25457      .   S
    O509   Zr72      2.25457  1_556   S
    O510   Zr73      2.25457  1_556   S
    O511   Zr74      2.25457      .   S
    O512   Zr75      2.25457      .   S
    O513   Zr76      2.25457  1_556   S
    O514   Zr77      2.25457  1_556   S
    O515   Zr78      2.25457      .   S
    O516   Zr79      2.25457      .   S
    O517   Zr80      2.25457      .   S
    O518   Zr81      2.25457      .   S
    O519   Zr82      2.25457      .   S
    O520   Zr83      2.25457      .   S
    O634   Zr99      2.07313  1_655   S
    O635   Zr100     2.07313      .   S
    O636   Zr101     2.07313      .   S
    O637   Zr102     2.07313      .   S
    O638   Zr103     2.07313      .   S
    O639   Zr104     2.07313      .   S
    O640   Zr105     2.07313      .   S
    O641   Zr106     2.07313  1_455   S
    O642   Zr107     2.07313  1_655   S
    O643   Zr108     2.07313      .   S
    O644   Zr109     2.07313      .   S
    O645   Zr110     2.07313      .   S
    O646   Zr111     2.07313      .   S
    O647   Zr112     2.07313      .   S
    O648   Zr113     2.07313      .   S
    O649   Zr114     2.07056      .   S
    O633   Zr115     2.07056  1_565   S
    O650   Zr116     2.07056      .   S
    O651   Zr117     2.07056      .   S
    O652   Zr118     2.07056      .   S
    O653   Zr119     2.07056  1_565   S
    O654   Zr120     2.07056      .   S
    O655   Zr121     2.07056      .   S
    O656   Zr122     2.07056      .   S
    O657   Zr123     2.07056      .   S
    O658   Zr124     2.07056  1_545   S
    O659   Zr125     2.07056      .   S
    O660   Zr126     2.07056      .   S
    O661   Zr50      2.07056      .   S
    O662   Zr51      2.07056  1_545   S
    O663   Zr52      2.25091      .   S
    O663   Zr133     2.33901      .   S
    O664   Zr53      2.25091      .   S
    O664   Zr134     2.33901  1_545   S
    O665   Zr1       2.25091      .   S
    O665   Zr135     2.33901      .   S
    O666   Zr0       2.25091      .   S
    O666   Zr136     2.33901      .   S
    O667   Zr58      2.25091      .   S
    O667   Zr137     2.33901      .   S
    O668   Zr59      2.25091      .   S
    O668   Zr138     2.33901  1_545   S
    O669   Zr60      2.25091      .   S
    O669   Zr139     2.33901      .   S
    O670   Zr61      2.25091      .   S
    O670   Zr140     2.33901      .   S
    O671   Zr62      2.25091      .   S
    O671   Zr141     2.33901      .   S
    O672   Zr63      2.25091      .   S
    O672   Zr142     2.33901      .   S
    O673   Zr64      2.25091      .   S
    O673   Zr143     2.33901  1_565   S
    O674   Zr65      2.25091      .   S
    O674   Zr144     2.33901      .   S
    O675   Zr66      2.25091      .   S
    O675   Zr145     2.33901      .   S
    O676   Zr67      2.25091      .   S
    O676   Zr146     2.33901      .   S
    O677   Zr68      2.25091      .   S
    O677   Zr147     2.33901  1_565   S
    O693   Zr84      2.24590      .   S
    O693   Zr114     2.24168  1_455   S
    O694   Zr85      2.24590      .   S
    O694   Zr115     2.24168      .   S
    O695   Zr86      2.24590      .   S
    O695   Zr116     2.24168      .   S
    O696   Zr87      2.24590      .   S
    O696   Zr117     2.24168      .   S
    O697   Zr88      2.24590      .   S
    O697   Zr118     2.24168      .   S
    O698   Zr89      2.24590      .   S
    O698   Zr119     2.24168      .   S
    O699   Zr90      2.24590      .   S
    O699   Zr120     2.24168      .   S
    O700   Zr91      2.24590      .   S
    O700   Zr121     2.24168  1_655   S
    O701   Zr92      2.24590      .   S
    O701   Zr122     2.24168  1_455   S
    O702   Zr93      2.24590      .   S
    O702   Zr123     2.24168      .   S
    O703   Zr94      2.24590      .   S
    O703   Zr124     2.24168      .   S
    O704   Zr95      2.24590      .   S
    O704   Zr125     2.24168      .   S
    O705   Zr96      2.24590      .   S
    O705   Zr126     2.24168      .   S
    O706   Zr97      2.24590      .   S
    O706   Zr50      2.24168      .   S
    O707   Zr98      2.24590      .   S
    O707   Zr51      2.24168      .   S
    O738   Zr114     2.27264  1_455   S
    O739   Zr115     2.27264      .   S
    O740   Zr116     2.27264      .   S
    O741   Zr117     2.27264      .   S
    O742   Zr118     2.27264      .   S
    O743   Zr119     2.27264      .   S
    O744   Zr120     2.27264      .   S
    O745   Zr121     2.27264  1_655   S
    O746   Zr122     2.27264  1_455   S
    O747   Zr123     2.27264      .   S
    O748   Zr124     2.27264      .   S
    O749   Zr125     2.27264      .   S
    O750   Zr126     2.27264      .   S
    O751   Zr50      2.27264      .   S
    O752   Zr51      2.27264      .   S
