# CIF file generated by openbabel 2.4.90, see http://openbabel.sf.net
data_I
_chemical_name_common ''
_cell_length_a 39.222
_cell_length_b 26.018
_cell_length_c 27.887
_cell_angle_alpha 90
_cell_angle_beta 90
_cell_angle_gamma 90
_space_group_name_H-M_alt 'P 1'
_space_group_name_Hall 'P 1'
loop_
    _symmetry_equiv_pos_as_xyz
    x,y,z
loop_
    _atom_site_label
    _atom_site_type_symbol
    _atom_site_fract_x
    _atom_site_fract_y
    _atom_site_fract_z
    _atom_site_occupancy
    N0      N    0.10521   0.93112   0.51240   1.000
    N1      N    0.24870   0.96545   0.12953   1.000
    N2      N    0.10312   0.90057   0.98568   1.000
    N3      N    0.85528   0.83722   0.50533   1.000
    N4      N    0.10528   0.41278   0.75533   1.000
    N5      N    0.14732   0.16730   0.01647   1.000
    N6      N    0.89479   0.56888   0.01240   1.000
    N7      N    0.39479   0.56888   0.51240   1.000
    N8      N    0.35528   0.83722   0.00533   1.000
    N9      N    0.64472   0.66278   0.50533   1.000
    N10     N    0.89732   0.08270   0.76647   1.000
    N11     N    0.74870   0.96545   0.62953   1.000
    N12     N    0.89479   0.06888   0.51240   1.000
    N13     N    0.00130   0.21545   0.37953   1.000
    N14     N    0.60312   0.40057   0.98568   1.000
    N15     N    0.39472   0.58722   0.25533   1.000
    N16     N    0.89688   0.59943   0.48568   1.000
    N17     N    0.35528   0.33722   0.50533   1.000
    N18     N    0.10312   0.40057   0.48568   1.000
    N19     N    0.10528   0.91278   0.25533   1.000
    N20     N    0.60528   0.41278   0.25533   1.000
    N21     N    0.89472   0.58722   0.75533   1.000
    N22     N    0.64472   0.16278   0.00533   1.000
    N23     N    0.24870   0.46545   0.62953   1.000
    N24     N    0.25130   0.03455   0.62953   1.000
    N25     N    0.50130   0.71545   0.37953   1.000
    N26     N    0.64479   0.18112   0.26240   1.000
    N27     N    0.25130   0.53455   0.12953   1.000
    N28     N    0.10268   0.41730   0.26647   1.000
    N29     N    0.89732   0.58270   0.26647   1.000
    N30     N    0.99870   0.78455   0.37953   1.000
    N31     N    0.14479   0.68112   0.26240   1.000
    N32     N    0.14472   0.66278   0.00533   1.000
    N33     N    0.14472   0.16278   0.50533   1.000
    N34     N    0.74870   0.46545   0.12953   1.000
    N35     N    0.89472   0.08722   0.25533   1.000
    N36     N    0.75130   0.53455   0.62953   1.000
    N37     N    0.75130   0.03455   0.12953   1.000
    N38     N    0.85268   0.83270   0.01647   1.000
    N39     N    0.35268   0.83270   0.51647   1.000
    N40     N    0.60268   0.91730   0.26647   1.000
    N41     N    0.14732   0.66730   0.51647   1.000
    N42     N    0.00130   0.71545   0.87953   1.000
    N43     N    0.49870   0.78455   0.87953   1.000
    N44     N    0.99870   0.28455   0.87953   1.000
    N45     N    0.50130   0.21545   0.87953   1.000
    N46     N    0.64732   0.16730   0.51647   1.000
    N47     N    0.10521   0.43112   0.01240   1.000
    N48     N    0.35521   0.81888   0.26240   1.000
    N49     N    0.35268   0.33270   0.01647   1.000
    N50     N    0.85268   0.33270   0.51647   1.000
    N51     N    0.39688   0.59943   0.98568   1.000
    N52     N    0.85521   0.81888   0.76240   1.000
    N53     N    0.64688   0.15057   0.73568   1.000
    N54     N    0.39688   0.09943   0.48568   1.000
    N55     N    0.60521   0.93112   0.01240   1.000
    N56     N    0.85521   0.31888   0.26240   1.000
    N57     N    0.39472   0.08722   0.75533   1.000
    N58     N    0.10268   0.91730   0.76647   1.000
    N59     N    0.39732   0.58270   0.76647   1.000
    N60     N    0.39479   0.06888   0.01240   1.000
    N61     N    0.64732   0.66730   0.01647   1.000
    N62     N    0.35521   0.31888   0.76240   1.000
    N63     N    0.39732   0.08270   0.26647   1.000
    N64     N    0.35312   0.84943   0.73568   1.000
    N65     N    0.14479   0.18112   0.76240   1.000
    N66     N    0.64479   0.68112   0.76240   1.000
    N67     N    0.64688   0.65057   0.23568   1.000
    N68     N    0.85312   0.34943   0.73568   1.000
    N69     N    0.49870   0.28455   0.37953   1.000
    N70     N    0.85312   0.84943   0.23568   1.000
    N71     N    0.60312   0.90057   0.48568   1.000
    N72     N    0.60521   0.43112   0.51240   1.000
    N73     N    0.35312   0.34943   0.23568   1.000
    N74     N    0.14688   0.65057   0.73568   1.000
    N75     N    0.85528   0.33722   0.00533   1.000
    N76     N    0.89688   0.09943   0.98568   1.000
    N77     N    0.14688   0.15057   0.23568   1.000
    N78     N    0.60528   0.91278   0.75533   1.000
    N79     N    0.60268   0.41730   0.76647   1.000
    Zr80    Zr   0.24968   0.00379   0.87988   1.000
    O81     O    0.24939   0.98633   0.98843   1.000
    O82     O    0.18551   0.96031   0.92577   1.000
    O83     O    0.25055   0.01868   0.77116   1.000
    O84     O    0.31352   0.03915   0.82635   1.000
    O85     O    0.20618   0.07552   0.94042   1.000
    O86     O    0.29373   0.93618   0.81608   1.000
    O87     O    0.20507   0.08349   0.83061   1.000
    O88     O    0.31320   0.02969   0.93748   1.000
    O89     O    0.29475   0.92870   0.93307   1.000
    O90     O    0.18513   0.96919   0.82960   1.000
    Zr91    Zr   0.24968   0.50379   0.37988   1.000
    O92     O    0.25055   0.51868   0.27116   1.000
    O93     O    0.24939   0.48633   0.48843   1.000
    O94     O    0.20618   0.57552   0.44042   1.000
    O95     O    0.20507   0.58349   0.33061   1.000
    O96     O    0.31320   0.52969   0.43748   1.000
    O97     O    0.18513   0.46919   0.32960   1.000
    O98     O    0.29373   0.43618   0.31608   1.000
    O99     O    0.31352   0.53915   0.32635   1.000
    O100    O    0.29475   0.42870   0.43307   1.000
    O101    O    0.18551   0.46031   0.42577   1.000
    Zr102   Zr   0.49968   0.74621   0.62988   1.000
    O103    O    0.45618   0.67448   0.69042   1.000
    O104    O    0.49939   0.76367   0.73843   1.000
    O105    O    0.43551   0.78969   0.67577   1.000
    O106    O    0.50055   0.73132   0.52116   1.000
    O107    O    0.45507   0.66651   0.58061   1.000
    O108    O    0.56320   0.72031   0.68748   1.000
    O109    O    0.54475   0.82130   0.68307   1.000
    O110    O    0.43513   0.78081   0.57960   1.000
    O111    O    0.54373   0.81382   0.56608   1.000
    O112    O    0.56352   0.71085   0.57635   1.000
    Zr113   Zr   0.50032   0.75379   0.12988   1.000
    O114    O    0.56449   0.71031   0.17577   1.000
    O115    O    0.43648   0.78915   0.07635   1.000
    O116    O    0.49945   0.76868   0.02116   1.000
    O117    O    0.43680   0.77969   0.18748   1.000
    O118    O    0.54382   0.82552   0.19042   1.000
    O119    O    0.45627   0.68618   0.06608   1.000
    O120    O    0.56487   0.71919   0.07960   1.000
    O121    O    0.54493   0.83349   0.08061   1.000
    O122    O    0.50061   0.73633   0.23843   1.000
    O123    O    0.45525   0.67870   0.18307   1.000
    Zr124   Zr   0.49968   0.24621   0.12988   1.000
    O125    O    0.56320   0.22031   0.18748   1.000
    O126    O    0.43513   0.28081   0.07960   1.000
    O127    O    0.43551   0.28969   0.17577   1.000
    O128    O    0.45618   0.17448   0.19042   1.000
    O129    O    0.54373   0.31382   0.06608   1.000
    O130    O    0.56352   0.21085   0.07635   1.000
    O131    O    0.45507   0.16651   0.08061   1.000
    O132    O    0.49939   0.26367   0.23843   1.000
    O133    O    0.54475   0.32130   0.18307   1.000
    O134    O    0.50055   0.23132   0.02116   1.000
    Zr135   Zr   0.99968   0.74621   0.12988   1.000
    O136    O    0.99939   0.76367   0.23843   1.000
    O137    O    0.93551   0.78969   0.17577   1.000
    O138    O    0.95507   0.66651   0.08061   1.000
    O139    O    0.04373   0.81382   0.06608   1.000
    O140    O    0.93513   0.78081   0.07960   1.000
    O141    O    0.95618   0.67448   0.19042   1.000
    O142    O    0.06352   0.71085   0.07635   1.000
    O143    O    0.00055   0.73132   0.02116   1.000
    O144    O    0.06320   0.72031   0.18748   1.000
    O145    O    0.04475   0.82130   0.18307   1.000
    Zr146   Zr   0.25032   0.99621   0.37988   1.000
    O147    O    0.31449   0.03969   0.42577   1.000
    O148    O    0.25061   0.01367   0.48843   1.000
    O149    O    0.24945   0.98132   0.27116   1.000
    O150    O    0.29382   0.92448   0.44042   1.000
    O151    O    0.29493   0.91651   0.33061   1.000
    O152    O    0.31487   0.03081   0.32960   1.000
    O153    O    0.20627   0.06382   0.31608   1.000
    O154    O    0.18680   0.97031   0.43748   1.000
    O155    O    0.18648   0.96085   0.32635   1.000
    O156    O    0.20525   0.07130   0.43307   1.000
    Zr157   Zr   0.99968   0.24621   0.62988   1.000
    O158    O    0.99939   0.26367   0.73843   1.000
    O159    O    0.06352   0.21085   0.57635   1.000
    O160    O    0.95618   0.17448   0.69042   1.000
    O161    O    0.06320   0.22031   0.68748   1.000
    O162    O    0.93513   0.28081   0.57960   1.000
    O163    O    0.04373   0.31382   0.56608   1.000
    O164    O    0.93551   0.28969   0.67577   1.000
    O165    O    0.00055   0.23132   0.52116   1.000
    O166    O    0.04475   0.32130   0.68307   1.000
    O167    O    0.95507   0.16651   0.58061   1.000
    Zr168   Zr   0.50032   0.25379   0.62988   1.000
    O169    O    0.54382   0.32552   0.69042   1.000
    O170    O    0.43680   0.27969   0.68748   1.000
    O171    O    0.56487   0.21919   0.57960   1.000
    O172    O    0.50061   0.23633   0.73843   1.000
    O173    O    0.49945   0.26868   0.52116   1.000
    O174    O    0.54493   0.33349   0.58061   1.000
    O175    O    0.45627   0.18618   0.56608   1.000
    O176    O    0.56449   0.21031   0.67577   1.000
    O177    O    0.45525   0.17870   0.68307   1.000
    O178    O    0.43648   0.28915   0.57635   1.000
    Zr179   Zr   0.75032   0.99621   0.87988   1.000
    O180    O    0.79382   0.92448   0.94042   1.000
    O181    O    0.81449   0.03969   0.92577   1.000
    O182    O    0.75061   0.01367   0.98843   1.000
    O183    O    0.68680   0.97031   0.93748   1.000
    O184    O    0.79493   0.91651   0.83061   1.000
    O185    O    0.81487   0.03081   0.82960   1.000
    O186    O    0.74945   0.98132   0.77116   1.000
    O187    O    0.70627   0.06382   0.81608   1.000
    O188    O    0.68648   0.96085   0.82635   1.000
    O189    O    0.70525   0.07130   0.93307   1.000
    Zr190   Zr   0.00032   0.25379   0.12988   1.000
    O191    O    0.93680   0.27969   0.18748   1.000
    O192    O    0.00061   0.23633   0.23843   1.000
    O193    O    0.06449   0.21031   0.17577   1.000
    O194    O    0.95627   0.18618   0.06608   1.000
    O195    O    0.93648   0.28915   0.07635   1.000
    O196    O    0.04382   0.32552   0.19042   1.000
    O197    O    0.06487   0.21919   0.07960   1.000
    O198    O    0.04493   0.33349   0.08061   1.000
    O199    O    0.95525   0.17870   0.18307   1.000
    O200    O    0.99945   0.26868   0.02116   1.000
    Zr201   Zr   0.00032   0.75379   0.62988   1.000
    O202    O    0.00061   0.73633   0.73843   1.000
    O203    O    0.06449   0.71031   0.67577   1.000
    O204    O    0.95627   0.68618   0.56608   1.000
    O205    O    0.99945   0.76868   0.52116   1.000
    O206    O    0.04382   0.82552   0.69042   1.000
    O207    O    0.04493   0.83349   0.58061   1.000
    O208    O    0.95525   0.67870   0.68307   1.000
    O209    O    0.93680   0.77969   0.68748   1.000
    O210    O    0.06487   0.71919   0.57960   1.000
    O211    O    0.93648   0.78915   0.57635   1.000
    Zr212   Zr   0.74968   0.50379   0.87988   1.000
    O213    O    0.74939   0.48633   0.98843   1.000
    O214    O    0.68551   0.46031   0.92577   1.000
    O215    O    0.70618   0.57552   0.94042   1.000
    O216    O    0.70507   0.58349   0.83061   1.000
    O217    O    0.68513   0.46919   0.82960   1.000
    O218    O    0.81320   0.52969   0.93748   1.000
    O219    O    0.79373   0.43618   0.81608   1.000
    O220    O    0.79475   0.42870   0.93307   1.000
    O221    O    0.81352   0.53915   0.82635   1.000
    O222    O    0.75055   0.51868   0.77116   1.000
    Zr223   Zr   0.74968   0.00379   0.37988   1.000
    O224    O    0.81320   0.02969   0.43748   1.000
    O225    O    0.68551   0.96031   0.42577   1.000
    O226    O    0.79373   0.93618   0.31608   1.000
    O227    O    0.74939   0.98633   0.48843   1.000
    O228    O    0.70618   0.07552   0.44042   1.000
    O229    O    0.70507   0.08349   0.33061   1.000
    O230    O    0.75055   0.01868   0.27116   1.000
    O231    O    0.68513   0.96919   0.32960   1.000
    O232    O    0.79475   0.92870   0.43307   1.000
    O233    O    0.81352   0.03915   0.32635   1.000
    Zr234   Zr   0.25032   0.49621   0.87988   1.000
    O235    O    0.25061   0.51367   0.98843   1.000
    O236    O    0.24945   0.48132   0.77116   1.000
    O237    O    0.29382   0.42448   0.94042   1.000
    O238    O    0.31449   0.53969   0.92577   1.000
    O239    O    0.20627   0.56382   0.81608   1.000
    O240    O    0.31487   0.53081   0.82960   1.000
    O241    O    0.29493   0.41651   0.83061   1.000
    O242    O    0.20525   0.57130   0.93307   1.000
    O243    O    0.18648   0.46085   0.82635   1.000
    O244    O    0.18680   0.47031   0.93748   1.000
    Zr245   Zr   0.75032   0.49621   0.37988   1.000
    O246    O    0.81449   0.53969   0.42577   1.000
    O247    O    0.68648   0.46085   0.32635   1.000
    O248    O    0.75061   0.51367   0.48843   1.000
    O249    O    0.81487   0.53081   0.32960   1.000
    O250    O    0.79382   0.42448   0.44042   1.000
    O251    O    0.68680   0.47031   0.43748   1.000
    O252    O    0.74945   0.48132   0.27116   1.000
    O253    O    0.79493   0.41651   0.33061   1.000
    O254    O    0.70627   0.56382   0.31608   1.000
    O255    O    0.70525   0.57130   0.43307   1.000
loop_
    _geom_bond_atom_site_label_1
    _geom_bond_atom_site_label_2
    _geom_bond_distance
    _geom_bond_site_symmetry_2
    _ccdc_geom_bond_type
    Zr80   O81       3.06125  1_545   S
    N1     O81       3.97226  1_554   S
    Zr80   O82       3.04184  1_545   S
    N2     O82       3.95601      .   S
    Zr80   O83       3.05666      .   S
    N24    O83       3.97115      .   S
    Zr80   O84       3.05689      .   S
    N57    O84       3.95331      .   S
    Zr80   O85       3.04040      .   S
    N5     O85       3.94087  1_554   S
    Zr80   O86       3.04050  1_545   S
    N64    O86       3.94287      .   S
    Zr80   O87       3.04108      .   S
    N65    O87       3.95730      .   S
    Zr80   O88       3.04017      .   S
    N60    O88       3.95550  1_554   S
    Zr80   O89       3.02363  1_545   S
    N8     O89       3.91965  1_554   S
    Zr80   O90       3.03052  1_545   S
    N58    O90       3.92190      .   S
    Zr91   O92       3.05666      .   S
    N27    O92       3.97115      .   S
    Zr91   O93       3.06125      .   S
    N23    O93       3.97226      .   S
    Zr91   O94       3.04040      .   S
    N41    O94       3.94087      .   S
    Zr91   O95       3.04108      .   S
    N31    O95       3.95730      .   S
    Zr91   O96       3.04017      .   S
    N7     O96       3.95550      .   S
    Zr91   O97       3.03052      .   S
    N28    O97       3.92190      .   S
    Zr91   O98       3.04050      .   S
    N73    O98       3.94287      .   S
    Zr91   O99       3.05689      .   S
    N15    O99       3.95331      .   S
    Zr91   O100      3.02363      .   S
    N17    O100      3.91965      .   S
    Zr91   O101      3.04184      .   S
    N18    O101      3.95601      .   S
    Zr102  O103      3.04040      .   S
    N59    O103      3.94087      .   S
    Zr102  O104      3.06125      .   S
    N43    O104      3.97226      .   S
    Zr102  O105      3.04184      .   S
    N64    O105      3.95601      .   S
    Zr102  O106      3.05666      .   S
    N25    O106      3.97115      .   S
    Zr102  O107      3.04108      .   S
    N7     O107      3.95730      .   S
    Zr102  O108      3.04017      .   S
    N66    O108      3.95550      .   S
    Zr102  O109      3.02363      .   S
    N78    O109      3.91965      .   S
    Zr102  O110      3.03052      .   S
    N39    O110      3.92190      .   S
    Zr102  O111      3.04050      .   S
    N71    O111      3.94287      .   S
    Zr102  O112      3.05689      .   S
    N9     O112      3.95331      .   S
    Zr113  O114      3.04184      .   S
    N67    O114      3.95601      .   S
    Zr113  O115      3.05689      .   S
    N8     O115      3.95331      .   S
    Zr113  O116      3.05666      .   S
    N43    O116      3.97115  1_556   S
    Zr113  O117      3.04017      .   S
    N48    O117      3.95550      .   S
    Zr113  O118      3.04040      .   S
    N40    O118      3.94087      .   S
    Zr113  O119      3.04050      .   S
    N51    O119      3.94287  1_556   S
    Zr113  O120      3.03052      .   S
    N61    O120      3.92190      .   S
    Zr113  O121      3.04108      .   S
    N55    O121      3.95730      .   S
    Zr113  O122      3.06125      .   S
    N25    O122      3.97226      .   S
    Zr113  O123      3.02363      .   S
    N15    O123      3.91965      .   S
    Zr124  O125      3.04017      .   S
    N26    O125      3.95550      .   S
    Zr124  O126      3.03052      .   S
    N49    O126      3.92190      .   S
    Zr124  O127      3.04184      .   S
    N73    O127      3.95601      .   S
    Zr124  O128      3.04040      .   S
    N63    O128      3.94087      .   S
    Zr124  O129      3.04050      .   S
    N14    O129      3.94287  1_556   S
    Zr124  O130      3.05689      .   S
    N22    O130      3.95331      .   S
    Zr124  O131      3.04108      .   S
    N60    O131      3.95730      .   S
    Zr124  O132      3.06125      .   S
    N69    O132      3.97226      .   S
    Zr124  O133      3.02363      .   S
    N20    O133      3.91965      .   S
    Zr124  O134      3.05666      .   S
    N45    O134      3.97115  1_556   S
    Zr135  O136      3.06125      .   S
    N30    O136      3.97226      .   S
    Zr135  O137      3.04184      .   S
    N70    O137      3.95601      .   S
    Zr135  O138      3.04108      .   S
    N6     O138      3.95730      .   S
    Zr135  O139      3.04050  1_655   S
    N2     O139      3.94287  1_556   S
    Zr135  O140      3.03052      .   S
    N38    O140      3.92190      .   S
    Zr135  O141      3.04040      .   S
    N29    O141      3.94087      .   S
    Zr135  O142      3.05689  1_655   S
    N32    O142      3.95331      .   S
    Zr135  O143      3.05666  1_655   S
    N42    O143      3.97115  1_556   S
    Zr135  O144      3.04017  1_655   S
    N31    O144      3.95550      .   S
    Zr135  O145      3.02363  1_655   S
    N19    O145      3.91965      .   S
    Zr146  O147      3.04184  1_565   S
    N54    O147      3.95601      .   S
    Zr146  O148      3.06125  1_565   S
    N24    O148      3.97226      .   S
    Zr146  O149      3.05666      .   S
    N1     O149      3.97115      .   S
    Zr146  O150      3.04040      .   S
    N39    O150      3.94087      .   S
    Zr146  O151      3.04108      .   S
    N48    O151      3.95730      .   S
    Zr146  O152      3.03052  1_565   S
    N63    O152      3.92190      .   S
    Zr146  O153      3.04050  1_565   S
    N77    O153      3.94287      .   S
    Zr146  O154      3.04017      .   S
    N0     O154      3.95550      .   S
    Zr146  O155      3.05689      .   S
    N19    O155      3.95331      .   S
    Zr146  O156      3.02363  1_565   S
    N33    O156      3.91965      .   S
    Zr157  O158      3.06125      .   S
    N44    O158      3.97226      .   S
    Zr157  O159      3.05689  1_655   S
    N33    O159      3.95331      .   S
    Zr157  O160      3.04040      .   S
    N10    O160      3.94087      .   S
    Zr157  O161      3.04017  1_655   S
    N65    O161      3.95550      .   S
    Zr157  O162      3.03052      .   S
    N50    O162      3.92190      .   S
    Zr157  O163      3.04050  1_655   S
    N18    O163      3.94287      .   S
    Zr157  O164      3.04184      .   S
    N68    O164      3.95601      .   S
    Zr157  O165      3.05666  1_655   S
    N13    O165      3.97115      .   S
    Zr157  O166      3.02363  1_655   S
    N4     O166      3.91965      .   S
    Zr157  O167      3.04108      .   S
    N12    O167      3.95730      .   S
    Zr168  O169      3.04040      .   S
    N79    O169      3.94087      .   S
    Zr168  O170      3.04017      .   S
    N62    O170      3.95550      .   S
    Zr168  O171      3.03052      .   S
    N46    O171      3.92190      .   S
    Zr168  O172      3.06125      .   S
    N45    O172      3.97226      .   S
    Zr168  O173      3.05666      .   S
    N69    O173      3.97115      .   S
    Zr168  O174      3.04108      .   S
    N72    O174      3.95730      .   S
    Zr168  O175      3.04050      .   S
    N54    O175      3.94287      .   S
    Zr168  O176      3.04184      .   S
    N53    O176      3.95601      .   S
    Zr168  O177      3.02363      .   S
    N57    O177      3.91965      .   S
    Zr168  O178      3.05689      .   S
    N17    O178      3.95331      .   S
    Zr179  O180      3.04040      .   S
    N38    O180      3.94087  1_554   S
    Zr179  O181      3.04184  1_565   S
    N76    O181      3.95601      .   S
    Zr179  O182      3.06125  1_565   S
    N37    O182      3.97226  1_554   S
    Zr179  O183      3.04017      .   S
    N55    O183      3.95550  1_554   S
    Zr179  O184      3.04108      .   S
    N52    O184      3.95730      .   S
    Zr179  O185      3.03052  1_565   S
    N10    O185      3.92190      .   S
    Zr179  O186      3.05666      .   S
    N11    O186      3.97115      .   S
    Zr179  O187      3.04050  1_565   S
    N53    O187      3.94287      .   S
    Zr179  O188      3.05689      .   S
    N78    O188      3.95331      .   S
    Zr179  O189      3.02363  1_565   S
    N22    O189      3.91965  1_554   S
    Zr190  O191      3.04017  1_455   S
    N56    O191      3.95550      .   S
    Zr190  O192      3.06125      .   S
    N13    O192      3.97226      .   S
    Zr190  O193      3.04184      .   S
    N77    O193      3.95601      .   S
    Zr190  O194      3.04050  1_455   S
    N76    O194      3.94287  1_556   S
    Zr190  O195      3.05689  1_455   S
    N75    O195      3.95331      .   S
    Zr190  O196      3.04040      .   S
    N28    O196      3.94087      .   S
    Zr190  O197      3.03052      .   S
    N5     O197      3.92190      .   S
    Zr190  O198      3.04108      .   S
    N47    O198      3.95730      .   S
    Zr190  O199      3.02363  1_455   S
    N35    O199      3.91965      .   S
    Zr190  O200      3.05666  1_455   S
    N44    O200      3.97115  1_556   S
    Zr201  O202      3.06125      .   S
    N42    O202      3.97226      .   S
    Zr201  O203      3.04184      .   S
    N74    O203      3.95601      .   S
    Zr201  O204      3.04050  1_455   S
    N16    O204      3.94287      .   S
    Zr201  O205      3.05666  1_455   S
    N30    O205      3.97115      .   S
    Zr201  O206      3.04040      .   S
    N58    O206      3.94087      .   S
    Zr201  O207      3.04108      .   S
    N0     O207      3.95730      .   S
    Zr201  O208      3.02363  1_455   S
    N21    O208      3.91965      .   S
    Zr201  O209      3.04017  1_455   S
    N52    O209      3.95550      .   S
    Zr201  O210      3.03052      .   S
    N41    O210      3.92190      .   S
    Zr201  O211      3.05689  1_455   S
    N3     O211      3.95331      .   S
    Zr212  O213      3.06125      .   S
    N34    O213      3.97226  1_554   S
    Zr212  O214      3.04184      .   S
    N14    O214      3.95601      .   S
    Zr212  O215      3.04040      .   S
    N61    O215      3.94087  1_554   S
    Zr212  O216      3.04108      .   S
    N66    O216      3.95730      .   S
    Zr212  O217      3.03052      .   S
    N79    O217      3.92190      .   S
    Zr212  O218      3.04017      .   S
    N6     O218      3.95550  1_554   S
    Zr212  O219      3.04050      .   S
    N68    O219      3.94287      .   S
    Zr212  O220      3.02363      .   S
    N75    O220      3.91965  1_554   S
    Zr212  O221      3.05689      .   S
    N21    O221      3.95331      .   S
    Zr212  O222      3.05666      .   S
    N36    O222      3.97115      .   S
    Zr223  O224      3.04017      .   S
    N12    O224      3.95550      .   S
    Zr223  O225      3.04184  1_545   S
    N71    O225      3.95601      .   S
    Zr223  O226      3.04050  1_545   S
    N70    O226      3.94287      .   S
    Zr223  O227      3.06125  1_545   S
    N11    O227      3.97226      .   S
    Zr223  O228      3.04040      .   S
    N46    O228      3.94087      .   S
    Zr223  O229      3.04108      .   S
    N26    O229      3.95730      .   S
    Zr223  O230      3.05666      .   S
    N37    O230      3.97115      .   S
    Zr223  O231      3.03052  1_545   S
    N40    O231      3.92190      .   S
    Zr223  O232      3.02363  1_545   S
    N3     O232      3.91965      .   S
    Zr223  O233      3.05689      .   S
    N35    O233      3.95331      .   S
    Zr234  O235      3.06125      .   S
    N27    O235      3.97226  1_554   S
    Zr234  O236      3.05666      .   S
    N23    O236      3.97115      .   S
    Zr234  O237      3.04040      .   S
    N49    O237      3.94087  1_554   S
    Zr234  O238      3.04184      .   S
    N51    O238      3.95601      .   S
    Zr234  O239      3.04050      .   S
    N74    O239      3.94287      .   S
    Zr234  O240      3.03052      .   S
    N59    O240      3.92190      .   S
    Zr234  O241      3.04108      .   S
    N62    O241      3.95730      .   S
    Zr234  O242      3.02363      .   S
    N32    O242      3.91965  1_554   S
    Zr234  O243      3.05689      .   S
    N4     O243      3.95331      .   S
    Zr234  O244      3.04017      .   S
    N47    O244      3.95550  1_554   S
    Zr245  O246      3.04184      .   S
    N16    O246      3.95601      .   S
    Zr245  O247      3.05689      .   S
    N20    O247      3.95331      .   S
    Zr245  O248      3.06125      .   S
    N36    O248      3.97226      .   S
    Zr245  O249      3.03052      .   S
    N29    O249      3.92190      .   S
    Zr245  O250      3.04040      .   S
    N50    O250      3.94087      .   S
    Zr245  O251      3.04017      .   S
    N72    O251      3.95550      .   S
    Zr245  O252      3.05666      .   S
    N34    O252      3.97115      .   S
    Zr245  O253      3.04108      .   S
    N56    O253      3.95730      .   S
    Zr245  O254      3.04050      .   S
    N67    O254      3.94287      .   S
    Zr245  O255      3.02363      .   S
    N9     O255      3.91965      .   S
