# CIF file generated by openbabel 2.4.90, see http://openbabel.sf.net
data_I
_chemical_name_common ''
_cell_length_a 39.222
_cell_length_b 26.018
_cell_length_c 27.887
_cell_angle_alpha 90
_cell_angle_beta 90
_cell_angle_gamma 90
_space_group_name_H-M_alt 'P 1'
_space_group_name_Hall 'P 1'
loop_
    _symmetry_equiv_pos_as_xyz
    x,y,z
loop_
    _atom_site_label
    _atom_site_type_symbol
    _atom_site_fract_x
    _atom_site_fract_y
    _atom_site_fract_z
    _atom_site_occupancy
    N0      N    0.25000   0.75000   0.02851   1.000
    N1      N    0.10521   0.93112   0.51240   1.000
    N2      N    0.24870   0.96545   0.12953   1.000
    N3      N    0.91224   0.19762   0.39826   1.000
    N4      N    0.10312   0.90057   0.98568   1.000
    N5      N    0.44937   0.42745   0.69762   1.000
    N6      N    0.85528   0.83722   0.50533   1.000
    N7      N    0.75040   0.14250   0.65850   1.000
    N8      N    0.00000   0.00000   0.49470   1.000
    N9      N    0.99960   0.39250   0.40850   1.000
    N10     N    0.99517   0.42430   0.65143   1.000
    N11     N    0.19120   0.83970   0.34440   1.000
    N12     N    0.05063   0.07255   0.69762   1.000
    N13     N    0.91674   0.23446   0.85254   1.000
    N14     N    0.05880   0.08970   0.59440   1.000
    N15     N    0.10528   0.41278   0.75533   1.000
    N16     N    0.92667   0.97480   0.37783   1.000
    N17     N    0.02175   0.08165   0.46390   1.000
    N18     N    0.14732   0.16730   0.01647   1.000
    N19     N    0.89479   0.56888   0.01240   1.000
    N20     N    0.39479   0.56888   0.51240   1.000
    N21     N    0.35528   0.83722   0.00533   1.000
    N22     N    0.64472   0.66278   0.50533   1.000
    N23     N    0.00000   0.50000   0.77851   1.000
    N24     N    0.89732   0.08270   0.76647   1.000
    N25     N    0.33776   0.94762   0.14826   1.000
    N26     N    0.95237   0.41240   0.54850   1.000
    N27     N    0.74870   0.96545   0.62953   1.000
    N28     N    0.89479   0.06888   0.51240   1.000
    N29     N    0.00130   0.21545   0.37953   1.000
    N30     N    0.60312   0.40057   0.98568   1.000
    N31     N    0.39472   0.58722   0.25533   1.000
    N32     N    0.89688   0.59943   0.48568   1.000
    N33     N    0.35528   0.33722   0.50533   1.000
    N34     N    0.10312   0.40057   0.48568   1.000
    N35     N    0.10528   0.91278   0.25533   1.000
    N36     N    0.79763   0.16240   0.79850   1.000
    N37     N    0.60528   0.41278   0.25533   1.000
    N38     N    0.89472   0.58722   0.75533   1.000
    N39     N    0.64472   0.16278   0.00533   1.000
    N40     N    0.24870   0.46545   0.62953   1.000
    N41     N    0.75483   0.67430   0.40143   1.000
    N42     N    0.25130   0.03455   0.62953   1.000
    N43     N    0.75000   0.75000   0.74470   1.000
    N44     N    0.57333   0.02520   0.87783   1.000
    N45     N    0.66224   0.05238   0.14826   1.000
    N46     N    0.50130   0.71545   0.37953   1.000
    N47     N    0.64479   0.18112   0.26240   1.000
    N48     N    0.27175   0.16835   0.71390   1.000
    N49     N    0.80880   0.16030   0.34440   1.000
    N50     N    0.25130   0.53455   0.12953   1.000
    N51     N    0.10268   0.41730   0.26647   1.000
    N52     N    0.89732   0.58270   0.26647   1.000
    N53     N    0.25000   0.25000   0.52851   1.000
    N54     N    0.75000   0.75000   0.52851   1.000
    N55     N    0.99870   0.78455   0.37953   1.000
    N56     N    0.14479   0.68112   0.26240   1.000
    N57     N    0.19937   0.82255   0.44762   1.000
    N58     N    0.83776   0.44762   0.14826   1.000
    N59     N    0.91224   0.69762   0.89826   1.000
    N60     N    0.08776   0.30238   0.89826   1.000
    N61     N    0.30063   0.67745   0.44762   1.000
    N62     N    0.16224   0.55238   0.14826   1.000
    N63     N    0.69937   0.32255   0.44762   1.000
    N64     N    0.72825   0.83165   0.71390   1.000
    N65     N    0.14472   0.66278   0.00533   1.000
    N66     N    0.58776   0.30238   0.39826   1.000
    N67     N    0.54763   0.58760   0.04850   1.000
    N68     N    0.43750   0.89650   0.39450   1.000
    N69     N    0.99960   0.89250   0.90850   1.000
    N70     N    0.30880   0.16030   0.84440   1.000
    N71     N    0.74960   0.85750   0.15850   1.000
    N72     N    0.14472   0.16278   0.50533   1.000
    N73     N    0.41224   0.69762   0.39826   1.000
    N74     N    0.83326   0.98446   0.10254   1.000
    N75     N    0.16674   0.01554   0.10254   1.000
    N76     N    0.74870   0.46545   0.12953   1.000
    N77     N    0.89472   0.08722   0.25533   1.000
    N78     N    0.06250   0.60350   0.39450   1.000
    N79     N    0.55063   0.07255   0.19762   1.000
    N80     N    0.41674   0.23446   0.35254   1.000
    N81     N    0.75130   0.53455   0.62953   1.000
    N82     N    0.67667   0.77520   0.62783   1.000
    N83     N    0.75130   0.03455   0.12953   1.000
    N84     N    0.33776   0.44762   0.64826   1.000
    N85     N    0.70237   0.83760   0.29850   1.000
    N86     N    0.33326   0.48446   0.10254   1.000
    N87     N    0.75000   0.25000   0.02851   1.000
    N88     N    0.85268   0.83270   0.01647   1.000
    N89     N    0.04763   0.58760   0.54850   1.000
    N90     N    0.54763   0.08760   0.54850   1.000
    N91     N    0.45237   0.91240   0.54850   1.000
    N92     N    0.94120   0.91030   0.59440   1.000
    N93     N    0.55880   0.58970   0.59440   1.000
    N94     N    0.44120   0.41030   0.59440   1.000
    N95     N    0.35268   0.83270   0.51647   1.000
    N96     N    0.60268   0.91730   0.26647   1.000
    N97     N    0.66224   0.55238   0.64826   1.000
    N98     N    0.92667   0.47480   0.87783   1.000
    N99     N    0.14732   0.66730   0.51647   1.000
    N100    N    0.58326   0.26554   0.85254   1.000
    N101    N    0.08326   0.76554   0.85254   1.000
    N102    N    0.41674   0.73446   0.85254   1.000
    N103    N    0.19120   0.33970   0.84440   1.000
    N104    N    0.80880   0.66030   0.84440   1.000
    N105    N    0.69120   0.83970   0.84440   1.000
    N106    N    0.41224   0.19762   0.89826   1.000
    N107    N    0.58776   0.80238   0.89826   1.000
    N108    N    0.00130   0.71545   0.87953   1.000
    N109    N    0.49870   0.78455   0.87953   1.000
    N110    N    0.99870   0.28455   0.87953   1.000
    N111    N    0.50130   0.21545   0.87953   1.000
    N112    N    0.25000   0.25000   0.74470   1.000
    N113    N    0.64732   0.16730   0.51647   1.000
    N114    N    0.10521   0.43112   0.01240   1.000
    N115    N    0.35521   0.81888   0.26240   1.000
    N116    N    0.35268   0.33270   0.01647   1.000
    N117    N    0.85268   0.33270   0.51647   1.000
    N118    N    0.32333   0.72480   0.12783   1.000
    N119    N    0.25483   0.67430   0.90143   1.000
    N120    N    0.92920   0.98990   0.88270   1.000
    N121    N    0.47825   0.91835   0.96390   1.000
    N122    N    0.83776   0.94762   0.64826   1.000
    N123    N    0.95237   0.91240   0.04850   1.000
    N124    N    0.39688   0.59943   0.98568   1.000
    N125    N    0.47825   0.41835   0.46390   1.000
    N126    N    0.85521   0.81888   0.76240   1.000
    N127    N    0.69937   0.82255   0.94762   1.000
    N128    N    0.00483   0.57570   0.65143   1.000
    N129    N    0.42667   0.97480   0.87783   1.000
    N130    N    0.08776   0.80238   0.39826   1.000
    N131    N    0.32333   0.22480   0.62783   1.000
    N132    N    0.64688   0.15057   0.73568   1.000
    N133    N    0.00270   0.54240   0.28090   1.000
    N134    N    0.49730   0.45760   0.78090   1.000
    N135    N    0.39688   0.09943   0.48568   1.000
    N136    N    0.67667   0.27520   0.12783   1.000
    N137    N    0.60521   0.93112   0.01240   1.000
    N138    N    0.85521   0.31888   0.26240   1.000
    N139    N    0.19937   0.32255   0.94762   1.000
    N140    N    0.72825   0.33165   0.21390   1.000
    N141    N    0.39472   0.08722   0.75533   1.000
    N142    N    0.80063   0.67745   0.94762   1.000
    N143    N    0.75483   0.17430   0.90143   1.000
    N144    N    0.10268   0.91730   0.76647   1.000
    N145    N    0.97825   0.91835   0.46390   1.000
    N146    N    0.05063   0.57255   0.19762   1.000
    N147    N    0.94937   0.42745   0.19762   1.000
    N148    N    0.16224   0.05238   0.64826   1.000
    N149    N    0.39732   0.58270   0.76647   1.000
    N150    N    0.39479   0.06888   0.01240   1.000
    N151    N    0.07333   0.52520   0.87783   1.000
    N152    N    0.64732   0.66730   0.01647   1.000
    N153    N    0.35521   0.31888   0.76240   1.000
    N154    N    0.24517   0.82570   0.90143   1.000
    N155    N    0.49960   0.89250   0.40850   1.000
    N156    N    0.04763   0.08760   0.04850   1.000
    N157    N    0.39732   0.08270   0.26647   1.000
    N158    N    0.80063   0.17745   0.44762   1.000
    N159    N    0.00040   0.60750   0.40850   1.000
    N160    N    0.67920   0.76010   0.13270   1.000
    N161    N    0.50483   0.07570   0.65143   1.000
    N162    N    0.79763   0.66240   0.29850   1.000
    N163    N    0.02175   0.58165   0.96390   1.000
    N164    N    0.35312   0.84943   0.73568   1.000
    N165    N    0.30063   0.17745   0.94762   1.000
    N166    N    0.99517   0.92430   0.15143   1.000
    N167    N    0.25040   0.14250   0.15850   1.000
    N168    N    0.50000   0.00000   0.77851   1.000
    N169    N    0.14479   0.18112   0.76240   1.000
    N170    N    0.24730   0.79240   0.53090   1.000
    N171    N    0.42667   0.47480   0.37783   1.000
    N172    N    0.64479   0.68112   0.76240   1.000
    N173    N    0.64688   0.65057   0.23568   1.000
    N174    N    0.75040   0.64250   0.15850   1.000
    N175    N    0.85312   0.34943   0.73568   1.000
    N176    N    0.83326   0.48446   0.60254   1.000
    N177    N    0.50483   0.57570   0.15143   1.000
    N178    N    0.49870   0.28455   0.37953   1.000
    N179    N    0.00483   0.07570   0.15143   1.000
    N180    N    0.74960   0.35750   0.65850   1.000
    N181    N    0.44120   0.91030   0.09440   1.000
    N182    N    0.81250   0.64650   0.14450   1.000
    N183    N    0.49517   0.92430   0.65143   1.000
    N184    N    0.85312   0.84943   0.23568   1.000
    N185    N    0.60312   0.90057   0.48568   1.000
    N186    N    0.31250   0.14650   0.14450   1.000
    N187    N    0.58326   0.76554   0.35254   1.000
    N188    N    0.30880   0.66030   0.34440   1.000
    N189    N    0.60521   0.43112   0.51240   1.000
    N190    N    0.08326   0.26554   0.35254   1.000
    N191    N    0.68750   0.85350   0.14450   1.000
    N192    N    0.25040   0.64250   0.65850   1.000
    N193    N    0.35312   0.34943   0.23568   1.000
    N194    N    0.17667   0.27520   0.62783   1.000
    N195    N    0.14688   0.65057   0.73568   1.000
    N196    N    0.85528   0.33722   0.00533   1.000
    N197    N    0.24730   0.29240   0.03090   1.000
    N198    N    0.56250   0.10350   0.39450   1.000
    N199    N    0.66674   0.51554   0.10254   1.000
    N200    N    0.82333   0.22480   0.12783   1.000
    N201    N    0.50000   0.50000   0.27851   1.000
    N202    N    0.33326   0.98446   0.60254   1.000
    N203    N    0.89688   0.09943   0.98568   1.000
    N204    N    0.44937   0.92745   0.19762   1.000
    N205    N    0.24960   0.35750   0.15850   1.000
    N206    N    0.68750   0.35350   0.64450   1.000
    N207    N    0.75270   0.70760   0.03090   1.000
    N208    N    0.45237   0.41240   0.04850   1.000
    N209    N    0.55063   0.57255   0.69762   1.000
    N210    N    0.69120   0.33970   0.34440   1.000
    N211    N    0.00270   0.04240   0.78090   1.000
    N212    N    0.17667   0.77520   0.12783   1.000
    N213    N    0.05880   0.58970   0.09440   1.000
    N214    N    0.75270   0.20760   0.53090   1.000
    N215    N    0.94120   0.41030   0.09440   1.000
    N216    N    0.20237   0.83760   0.79850   1.000
    N217    N    0.74517   0.82570   0.40143   1.000
    N218    N    0.14688   0.15057   0.23568   1.000
    N219    N    0.49960   0.39250   0.90850   1.000
    N220    N    0.25483   0.17430   0.40143   1.000
    N221    N    0.24960   0.85750   0.65850   1.000
    N222    N    0.93750   0.89650   0.89450   1.000
    N223    N    0.60528   0.91278   0.75533   1.000
    N224    N    0.81250   0.14650   0.64450   1.000
    N225    N    0.92920   0.48990   0.38270   1.000
    N226    N    0.60268   0.41730   0.76647   1.000
    N227    N    0.42920   0.98990   0.38270   1.000
    N228    N    0.82333   0.72480   0.62783   1.000
    N229    N    0.55880   0.08970   0.09440   1.000
    N230    N    0.67920   0.26010   0.63270   1.000
    N231    N    0.20237   0.33760   0.29850   1.000
    N232    N    0.24517   0.32570   0.40143   1.000
    N233    N    0.29763   0.16240   0.29850   1.000
    N234    N    0.56250   0.60350   0.89450   1.000
    N235    N    0.07080   0.51010   0.38270   1.000
    N236    N    0.74517   0.32570   0.90143   1.000
    N237    N    0.74730   0.79240   0.03090   1.000
    N238    N    0.94937   0.92745   0.69762   1.000
    N239    N    0.75000   0.25000   0.24470   1.000
    N240    N    0.66674   0.01554   0.60254   1.000
    N241    N    0.43750   0.39650   0.89450   1.000
    N242    N    0.91674   0.73446   0.35254   1.000
    N243    N    0.49517   0.42430   0.15143   1.000
    N244    N    0.18750   0.35350   0.14450   1.000
    N245    N    0.06250   0.10350   0.89450   1.000
    N246    N    0.16674   0.51554   0.60254   1.000
    N247    N    0.00000   0.00000   0.27851   1.000
    N248    N    0.52175   0.58165   0.46390   1.000
    N249    N    0.74730   0.29240   0.53090   1.000
    N250    N    0.32080   0.73990   0.63270   1.000
    N251    N    0.57080   0.01010   0.38270   1.000
    N252    N    0.50270   0.04240   0.28090   1.000
    N253    N    0.70237   0.33760   0.79850   1.000
    N254    N    0.07333   0.02520   0.37783   1.000
    N255    N    0.99730   0.45760   0.28090   1.000
    N256    N    0.22825   0.83165   0.21390   1.000
    N257    N    0.25270   0.20760   0.03090   1.000
    N258    N    0.57333   0.52520   0.37783   1.000
    N259    N    0.18750   0.85350   0.64450   1.000
    N260    N    0.29763   0.66240   0.79850   1.000
    N261    N    0.49730   0.95760   0.28090   1.000
    N262    N    0.00040   0.10750   0.90850   1.000
    N263    N    0.42920   0.48990   0.88270   1.000
    N264    N    0.93750   0.39650   0.39450   1.000
    N265    N    0.52175   0.08165   0.96390   1.000
    N266    N    0.50040   0.60750   0.90850   1.000
    N267    N    0.77175   0.16835   0.21390   1.000
    N268    N    0.82080   0.73990   0.13270   1.000
    N269    N    0.27175   0.66835   0.21390   1.000
    N270    N    0.50000   0.00000   0.99470   1.000
    N271    N    0.77175   0.66835   0.71390   1.000
    N272    N    0.50040   0.10750   0.40850   1.000
    N273    N    0.57080   0.51010   0.88270   1.000
    N274    N    0.31250   0.64650   0.64450   1.000
    N275    N    0.17920   0.76010   0.63270   1.000
    N276    N    0.22825   0.33165   0.71390   1.000
    N277    N    0.99730   0.95760   0.78090   1.000
    N278    N    0.25000   0.75000   0.24470   1.000
    N279    N    0.82080   0.23990   0.63270   1.000
    N280    N    0.97825   0.41835   0.96390   1.000
    N281    N    0.50000   0.50000   0.49470   1.000
    N282    N    0.25270   0.70760   0.53090   1.000
    N283    N    0.07080   0.01010   0.88270   1.000
    N284    N    0.17920   0.26010   0.13270   1.000
    N285    N    0.00000   0.50000   0.99470   1.000
    N286    N    0.32080   0.23990   0.13270   1.000
    N287    N    0.50270   0.54240   0.78090   1.000
    Zr288   Zr   0.24968   0.00379   0.87988   1.000
    O289    O    0.23293   0.93868   0.84084   1.000
    O290    O    0.24939   0.98633   0.98843   1.000
    O291    O    0.18551   0.96031   0.92577   1.000
    O292    O    0.25055   0.01868   0.77116   1.000
    O293    O    0.31352   0.03915   0.82635   1.000
    O294    O    0.26797   0.07074   0.91551   1.000
    O295    O    0.20618   0.07552   0.94042   1.000
    O296    O    0.27000   0.07087   0.85810   1.000
    O297    O    0.29373   0.93618   0.81608   1.000
    O298    O    0.20507   0.08349   0.83061   1.000
    O299    O    0.31320   0.02969   0.93748   1.000
    O300    O    0.29475   0.92870   0.93307   1.000
    O301    O    0.18513   0.96919   0.82960   1.000
    O302    O    0.24364   0.93111   0.89742   1.000
    Zr303   Zr   0.24968   0.50379   0.37988   1.000
    O304    O    0.26797   0.57074   0.41551   1.000
    O305    O    0.23293   0.43868   0.34084   1.000
    O306    O    0.25055   0.51868   0.27116   1.000
    O307    O    0.24939   0.48633   0.48843   1.000
    O308    O    0.20618   0.57552   0.44042   1.000
    O309    O    0.24364   0.43111   0.39742   1.000
    O310    O    0.20507   0.58349   0.33061   1.000
    O311    O    0.31320   0.52969   0.43748   1.000
    O312    O    0.18513   0.46919   0.32960   1.000
    O313    O    0.27000   0.57087   0.35810   1.000
    O314    O    0.29373   0.43618   0.31608   1.000
    O315    O    0.31352   0.53915   0.32635   1.000
    O316    O    0.29475   0.42870   0.43307   1.000
    O317    O    0.18551   0.46031   0.42577   1.000
    Zr318   Zr   0.49968   0.74621   0.62988   1.000
    O319    O    0.45618   0.67448   0.69042   1.000
    O320    O    0.49939   0.76367   0.73843   1.000
    O321    O    0.43551   0.78969   0.67577   1.000
    O322    O    0.49364   0.81889   0.64742   1.000
    O323    O    0.50055   0.73132   0.52116   1.000
    O324    O    0.45507   0.66651   0.58061   1.000
    O325    O    0.56320   0.72031   0.68748   1.000
    O326    O    0.54475   0.82130   0.68307   1.000
    O327    O    0.52000   0.67913   0.60810   1.000
    O328    O    0.43513   0.78081   0.57960   1.000
    O329    O    0.51797   0.67926   0.66551   1.000
    O330    O    0.48293   0.81132   0.59084   1.000
    O331    O    0.54373   0.81382   0.56608   1.000
    O332    O    0.56352   0.71085   0.57635   1.000
    Zr333   Zr   0.50032   0.75379   0.12988   1.000
    O334    O    0.48000   0.82087   0.10810   1.000
    O335    O    0.51707   0.68868   0.09084   1.000
    O336    O    0.56449   0.71031   0.17577   1.000
    O337    O    0.50636   0.68111   0.14742   1.000
    O338    O    0.43648   0.78915   0.07635   1.000
    O339    O    0.49945   0.76868   0.02116   1.000
    O340    O    0.43680   0.77969   0.18748   1.000
    O341    O    0.54382   0.82552   0.19042   1.000
    O342    O    0.45627   0.68618   0.06608   1.000
    O343    O    0.56487   0.71919   0.07960   1.000
    O344    O    0.54493   0.83349   0.08061   1.000
    O345    O    0.48203   0.82074   0.16551   1.000
    O346    O    0.50061   0.73633   0.23843   1.000
    O347    O    0.45525   0.67870   0.18307   1.000
    Zr348   Zr   0.49968   0.24621   0.12988   1.000
    O349    O    0.56320   0.22031   0.18748   1.000
    O350    O    0.48293   0.31132   0.09084   1.000
    O351    O    0.43513   0.28081   0.07960   1.000
    O352    O    0.43551   0.28969   0.17577   1.000
    O353    O    0.45618   0.17448   0.19042   1.000
    O354    O    0.54373   0.31382   0.06608   1.000
    O355    O    0.56352   0.21085   0.07635   1.000
    O356    O    0.45507   0.16651   0.08061   1.000
    O357    O    0.49364   0.31889   0.14742   1.000
    O358    O    0.52000   0.17913   0.10810   1.000
    O359    O    0.49939   0.26367   0.23843   1.000
    O360    O    0.51797   0.17926   0.16551   1.000
    O361    O    0.54475   0.32130   0.18307   1.000
    O362    O    0.50055   0.23132   0.02116   1.000
    Zr363   Zr   0.99968   0.74621   0.12988   1.000
    O364    O    0.98293   0.81132   0.09084   1.000
    O365    O    0.99939   0.76367   0.23843   1.000
    O366    O    0.93551   0.78969   0.17577   1.000
    O367    O    0.95507   0.66651   0.08061   1.000
    O368    O    0.99364   0.81889   0.14742   1.000
    O369    O    0.04373   0.81382   0.06608   1.000
    O370    O    0.93513   0.78081   0.07960   1.000
    O371    O    0.01797   0.67926   0.16551   1.000
    O372    O    0.95618   0.67448   0.19042   1.000
    O373    O    0.02000   0.67913   0.10810   1.000
    O374    O    0.06352   0.71085   0.07635   1.000
    O375    O    0.00055   0.73132   0.02116   1.000
    O376    O    0.06320   0.72031   0.18748   1.000
    O377    O    0.04475   0.82130   0.18307   1.000
    Zr378   Zr   0.25032   0.99621   0.37988   1.000
    O379    O    0.31449   0.03969   0.42577   1.000
    O380    O    0.26707   0.06132   0.34084   1.000
    O381    O    0.25061   0.01367   0.48843   1.000
    O382    O    0.24945   0.98132   0.27116   1.000
    O383    O    0.29382   0.92448   0.44042   1.000
    O384    O    0.23203   0.92926   0.41551   1.000
    O385    O    0.29493   0.91651   0.33061   1.000
    O386    O    0.31487   0.03081   0.32960   1.000
    O387    O    0.25636   0.06889   0.39742   1.000
    O388    O    0.20627   0.06382   0.31608   1.000
    O389    O    0.18680   0.97031   0.43748   1.000
    O390    O    0.23000   0.92913   0.35810   1.000
    O391    O    0.18648   0.96085   0.32635   1.000
    O392    O    0.20525   0.07130   0.43307   1.000
    Zr393   Zr   0.99968   0.24621   0.62988   1.000
    O394    O    0.99939   0.26367   0.73843   1.000
    O395    O    0.06352   0.21085   0.57635   1.000
    O396    O    0.01797   0.17926   0.66551   1.000
    O397    O    0.95618   0.17448   0.69042   1.000
    O398    O    0.06320   0.22031   0.68748   1.000
    O399    O    0.93513   0.28081   0.57960   1.000
    O400    O    0.98293   0.31132   0.59084   1.000
    O401    O    0.02000   0.17913   0.60810   1.000
    O402    O    0.04373   0.31382   0.56608   1.000
    O403    O    0.99364   0.31889   0.64742   1.000
    O404    O    0.93551   0.28969   0.67577   1.000
    O405    O    0.00055   0.23132   0.52116   1.000
    O406    O    0.04475   0.32130   0.68307   1.000
    O407    O    0.95507   0.16651   0.58061   1.000
    Zr408   Zr   0.50032   0.25379   0.62988   1.000
    O409    O    0.50636   0.18111   0.64742   1.000
    O410    O    0.54382   0.32552   0.69042   1.000
    O411    O    0.43680   0.27969   0.68748   1.000
    O412    O    0.48203   0.32074   0.66551   1.000
    O413    O    0.56487   0.21919   0.57960   1.000
    O414    O    0.50061   0.23633   0.73843   1.000
    O415    O    0.49945   0.26868   0.52116   1.000
    O416    O    0.51707   0.18868   0.59084   1.000
    O417    O    0.54493   0.33349   0.58061   1.000
    O418    O    0.45627   0.18618   0.56608   1.000
    O419    O    0.56449   0.21031   0.67577   1.000
    O420    O    0.48000   0.32087   0.60810   1.000
    O421    O    0.45525   0.17870   0.68307   1.000
    O422    O    0.43648   0.28915   0.57635   1.000
    Zr423   Zr   0.75032   0.99621   0.87988   1.000
    O424    O    0.73000   0.92913   0.85810   1.000
    O425    O    0.73203   0.92926   0.91551   1.000
    O426    O    0.79382   0.92448   0.94042   1.000
    O427    O    0.76707   0.06132   0.84084   1.000
    O428    O    0.81449   0.03969   0.92577   1.000
    O429    O    0.75061   0.01367   0.98843   1.000
    O430    O    0.68680   0.97031   0.93748   1.000
    O431    O    0.79493   0.91651   0.83061   1.000
    O432    O    0.81487   0.03081   0.82960   1.000
    O433    O    0.75636   0.06889   0.89742   1.000
    O434    O    0.74945   0.98132   0.77116   1.000
    O435    O    0.70627   0.06382   0.81608   1.000
    O436    O    0.68648   0.96085   0.82635   1.000
    O437    O    0.70525   0.07130   0.93307   1.000
    Zr438   Zr   0.00032   0.25379   0.12988   1.000
    O439    O    0.93680   0.27969   0.18748   1.000
    O440    O    0.00061   0.23633   0.23843   1.000
    O441    O    0.00636   0.18111   0.14742   1.000
    O442    O    0.06449   0.21031   0.17577   1.000
    O443    O    0.98203   0.32074   0.16551   1.000
    O444    O    0.95627   0.18618   0.06608   1.000
    O445    O    0.93648   0.28915   0.07635   1.000
    O446    O    0.04382   0.32552   0.19042   1.000
    O447    O    0.01707   0.18868   0.09084   1.000
    O448    O    0.98000   0.32087   0.10810   1.000
    O449    O    0.06487   0.21919   0.07960   1.000
    O450    O    0.04493   0.33349   0.08061   1.000
    O451    O    0.95525   0.17870   0.18307   1.000
    O452    O    0.99945   0.26868   0.02116   1.000
    Zr453   Zr   0.00032   0.75379   0.62988   1.000
    O454    O    0.98203   0.82074   0.66551   1.000
    O455    O    0.01707   0.68868   0.59084   1.000
    O456    O    0.00061   0.73633   0.73843   1.000
    O457    O    0.00636   0.68111   0.64742   1.000
    O458    O    0.06449   0.71031   0.67577   1.000
    O459    O    0.95627   0.68618   0.56608   1.000
    O460    O    0.99945   0.76868   0.52116   1.000
    O461    O    0.04382   0.82552   0.69042   1.000
    O462    O    0.98000   0.82087   0.60810   1.000
    O463    O    0.04493   0.83349   0.58061   1.000
    O464    O    0.95525   0.67870   0.68307   1.000
    O465    O    0.93680   0.77969   0.68748   1.000
    O466    O    0.06487   0.71919   0.57960   1.000
    O467    O    0.93648   0.78915   0.57635   1.000
    Zr468   Zr   0.74968   0.50379   0.87988   1.000
    O469    O    0.76797   0.57074   0.91551   1.000
    O470    O    0.74939   0.48633   0.98843   1.000
    O471    O    0.73293   0.43868   0.84084   1.000
    O472    O    0.68551   0.46031   0.92577   1.000
    O473    O    0.70618   0.57552   0.94042   1.000
    O474    O    0.70507   0.58349   0.83061   1.000
    O475    O    0.74364   0.43111   0.89742   1.000
    O476    O    0.77000   0.57087   0.85810   1.000
    O477    O    0.68513   0.46919   0.82960   1.000
    O478    O    0.81320   0.52969   0.93748   1.000
    O479    O    0.79373   0.43618   0.81608   1.000
    O480    O    0.79475   0.42870   0.93307   1.000
    O481    O    0.81352   0.53915   0.82635   1.000
    O482    O    0.75055   0.51868   0.77116   1.000
    Zr483   Zr   0.74968   0.00379   0.37988   1.000
    O484    O    0.81320   0.02969   0.43748   1.000
    O485    O    0.76797   0.07074   0.41551   1.000
    O486    O    0.77000   0.07087   0.35810   1.000
    O487    O    0.68551   0.96031   0.42577   1.000
    O488    O    0.79373   0.93618   0.31608   1.000
    O489    O    0.74939   0.98633   0.48843   1.000
    O490    O    0.70618   0.07552   0.44042   1.000
    O491    O    0.74364   0.93111   0.39742   1.000
    O492    O    0.70507   0.08349   0.33061   1.000
    O493    O    0.73293   0.93868   0.34084   1.000
    O494    O    0.75055   0.01868   0.27116   1.000
    O495    O    0.68513   0.96919   0.32960   1.000
    O496    O    0.79475   0.92870   0.43307   1.000
    O497    O    0.81352   0.03915   0.32635   1.000
    Zr498   Zr   0.25032   0.49621   0.87988   1.000
    O499    O    0.23203   0.42926   0.91551   1.000
    O500    O    0.26707   0.56132   0.84084   1.000
    O501    O    0.25061   0.51367   0.98843   1.000
    O502    O    0.25636   0.56889   0.89742   1.000
    O503    O    0.24945   0.48132   0.77116   1.000
    O504    O    0.29382   0.42448   0.94042   1.000
    O505    O    0.23000   0.42913   0.85810   1.000
    O506    O    0.31449   0.53969   0.92577   1.000
    O507    O    0.20627   0.56382   0.81608   1.000
    O508    O    0.31487   0.53081   0.82960   1.000
    O509    O    0.29493   0.41651   0.83061   1.000
    O510    O    0.20525   0.57130   0.93307   1.000
    O511    O    0.18648   0.46085   0.82635   1.000
    O512    O    0.18680   0.47031   0.93748   1.000
    Zr513   Zr   0.75032   0.49621   0.37988   1.000
    O514    O    0.76707   0.56132   0.34084   1.000
    O515    O    0.81449   0.53969   0.42577   1.000
    O516    O    0.68648   0.46085   0.32635   1.000
    O517    O    0.75061   0.51367   0.48843   1.000
    O518    O    0.81487   0.53081   0.32960   1.000
    O519    O    0.73000   0.42913   0.35810   1.000
    O520    O    0.79382   0.42448   0.44042   1.000
    O521    O    0.68680   0.47031   0.43748   1.000
    O522    O    0.74945   0.48132   0.27116   1.000
    O523    O    0.75636   0.56889   0.39742   1.000
    O524    O    0.79493   0.41651   0.33061   1.000
    O525    O    0.70627   0.56382   0.31608   1.000
    O526    O    0.73203   0.42926   0.41551   1.000
    O527    O    0.70525   0.57130   0.43307   1.000
loop_
    _geom_bond_atom_site_label_1
    _geom_bond_atom_site_label_2
    _geom_bond_distance
    _geom_bond_site_symmetry_2
    _ccdc_geom_bond_type
    Zr288  O289      2.11811  1_545   S
    N216   O289      3.12206      .   S
    Zr288  O290      3.06125  1_545   S
    N2     O290      3.97226  1_554   S
    Zr288  O291      3.04184  1_545   S
    N4     O291      3.95601      .   S
    Zr288  O292      3.05666      .   S
    N42    O292      3.97115      .   S
    Zr288  O293      3.05689      .   S
    N141   O293      3.95331      .   S
    Zr288  O294      2.12993      .   S
    N165   O294      3.18597      .   S
    Zr288  O295      3.04040      .   S
    N18    O295      3.94087  1_554   S
    Zr288  O296      2.01259      .   S
    N70    O296      2.80632      .   S
    Zr288  O297      3.04050  1_545   S
    N164   O297      3.94287      .   S
    Zr288  O298      3.04108      .   S
    N169   O298      3.95730      .   S
    Zr288  O299      3.04017      .   S
    N150   O299      3.95550  1_554   S
    Zr288  O300      3.02363  1_545   S
    N21    O300      3.91965  1_554   S
    Zr288  O301      3.03052  1_545   S
    N144   O301      3.92190      .   S
    Zr288  O302      1.96755  1_545   S
    N154   O302      2.74548      .   S
    Zr303  O304      2.12993      .   S
    N61    O304      3.18597      .   S
    Zr303  O305      2.11811      .   S
    N231   O305      3.12206      .   S
    Zr303  O306      3.05666      .   S
    N50    O306      3.97115      .   S
    Zr303  O307      3.06125      .   S
    N40    O307      3.97226      .   S
    Zr303  O308      3.04040      .   S
    N99    O308      3.94087      .   S
    Zr303  O309      1.96755      .   S
    N232   O309      2.74548      .   S
    Zr303  O310      3.04108      .   S
    N56    O310      3.95730      .   S
    Zr303  O311      3.04017      .   S
    N20    O311      3.95550      .   S
    Zr303  O312      3.03052      .   S
    N51    O312      3.92190      .   S
    Zr303  O313      2.01259      .   S
    N188   O313      2.80632      .   S
    Zr303  O314      3.04050      .   S
    N193   O314      3.94287      .   S
    Zr303  O315      3.05689      .   S
    N31    O315      3.95331      .   S
    Zr303  O316      3.02363      .   S
    N33    O316      3.91965      .   S
    Zr303  O317      3.04184      .   S
    N34    O317      3.95601      .   S
    Zr318  O319      3.04040      .   S
    N149   O319      3.94087      .   S
    Zr318  O320      3.06125      .   S
    N109   O320      3.97226      .   S
    Zr318  O321      3.04184      .   S
    N164   O321      3.95601      .   S
    Zr318  O322      1.96755      .   S
    N183   O322      2.74548      .   S
    Zr318  O323      3.05666      .   S
    N46    O323      3.97115      .   S
    Zr318  O324      3.04108      .   S
    N20    O324      3.95730      .   S
    Zr318  O325      3.04017      .   S
    N172   O325      3.95550      .   S
    Zr318  O326      3.02363      .   S
    N223   O326      3.91965      .   S
    Zr318  O327      2.01259      .   S
    N93    O327      2.80632      .   S
    Zr318  O328      3.03052      .   S
    N95    O328      3.92190      .   S
    Zr318  O329      2.12993      .   S
    N209   O329      3.18597      .   S
    Zr318  O330      2.11811      .   S
    N91    O330      3.12206      .   S
    Zr318  O331      3.04050      .   S
    N185   O331      3.94287      .   S
    Zr318  O332      3.05689      .   S
    N22    O332      3.95331      .   S
    Zr333  O334      2.01259      .   S
    N181   O334      2.80632      .   S
    Zr333  O335      2.11811      .   S
    N67    O335      3.12206      .   S
    Zr333  O336      3.04184      .   S
    N173   O336      3.95601      .   S
    Zr333  O337      1.96755      .   S
    N177   O337      2.74548      .   S
    Zr333  O338      3.05689      .   S
    N21    O338      3.95331      .   S
    Zr333  O339      3.05666      .   S
    N109   O339      3.97115  1_556   S
    Zr333  O340      3.04017      .   S
    N115   O340      3.95550      .   S
    Zr333  O341      3.04040      .   S
    N96    O341      3.94087      .   S
    Zr333  O342      3.04050      .   S
    N124   O342      3.94287  1_556   S
    Zr333  O343      3.03052      .   S
    N152   O343      3.92190      .   S
    Zr333  O344      3.04108      .   S
    N137   O344      3.95730      .   S
    Zr333  O345      2.12993      .   S
    N204   O345      3.18597      .   S
    Zr333  O346      3.06125      .   S
    N46    O346      3.97226      .   S
    Zr333  O347      3.02363      .   S
    N31    O347      3.91965      .   S
    Zr348  O349      3.04017      .   S
    N47    O349      3.95550      .   S
    Zr348  O350      2.11811      .   S
    N208   O350      3.12206      .   S
    Zr348  O351      3.03052      .   S
    N116   O351      3.92190      .   S
    Zr348  O352      3.04184      .   S
    N193   O352      3.95601      .   S
    Zr348  O353      3.04040      .   S
    N157   O353      3.94087      .   S
    Zr348  O354      3.04050      .   S
    N30    O354      3.94287  1_556   S
    Zr348  O355      3.05689      .   S
    N39    O355      3.95331      .   S
    Zr348  O356      3.04108      .   S
    N150   O356      3.95730      .   S
    Zr348  O357      1.96755      .   S
    N243   O357      2.74548      .   S
    Zr348  O358      2.01259      .   S
    N229   O358      2.80632      .   S
    Zr348  O359      3.06125      .   S
    N178   O359      3.97226      .   S
    Zr348  O360      2.12993      .   S
    N79    O360      3.18597      .   S
    Zr348  O361      3.02363      .   S
    N37    O361      3.91965      .   S
    Zr348  O362      3.05666      .   S
    N111   O362      3.97115  1_556   S
    Zr363  O364      2.11811      .   S
    N123   O364      3.12206      .   S
    Zr363  O365      3.06125      .   S
    N55    O365      3.97226      .   S
    Zr363  O366      3.04184      .   S
    N184   O366      3.95601      .   S
    Zr363  O367      3.04108      .   S
    N19    O367      3.95730      .   S
    Zr363  O368      1.96755      .   S
    N166   O368      2.74548      .   S
    Zr363  O369      3.04050  1_655   S
    N4     O369      3.94287  1_556   S
    Zr363  O370      3.03052      .   S
    N88    O370      3.92190      .   S
    Zr363  O371      2.12993  1_655   S
    N146   O371      3.18597      .   S
    Zr363  O372      3.04040      .   S
    N52    O372      3.94087      .   S
    Zr363  O373      2.01259  1_655   S
    N213   O373      2.80632      .   S
    Zr363  O374      3.05689  1_655   S
    N65    O374      3.95331      .   S
    Zr363  O375      3.05666  1_655   S
    N108   O375      3.97115  1_556   S
    Zr363  O376      3.04017  1_655   S
    N56    O376      3.95550      .   S
    Zr363  O377      3.02363  1_655   S
    N35    O377      3.91965      .   S
    Zr378  O379      3.04184  1_565   S
    N135   O379      3.95601      .   S
    Zr378  O380      2.11811  1_565   S
    N233   O380      3.12206      .   S
    Zr378  O381      3.06125  1_565   S
    N42    O381      3.97226      .   S
    Zr378  O382      3.05666      .   S
    N2     O382      3.97115      .   S
    Zr378  O383      3.04040      .   S
    N95    O383      3.94087      .   S
    Zr378  O384      2.12993      .   S
    N57    O384      3.18597      .   S
    Zr378  O385      3.04108      .   S
    N115   O385      3.95730      .   S
    Zr378  O386      3.03052  1_565   S
    N157   O386      3.92190      .   S
    Zr378  O387      1.96755  1_565   S
    N220   O387      2.74548      .   S
    Zr378  O388      3.04050  1_565   S
    N218   O388      3.94287      .   S
    Zr378  O389      3.04017      .   S
    N1     O389      3.95550      .   S
    Zr378  O390      2.01259      .   S
    N11    O390      2.80632      .   S
    Zr378  O391      3.05689      .   S
    N35    O391      3.95331      .   S
    Zr378  O392      3.02363  1_565   S
    N72    O392      3.91965      .   S
    Zr393  O394      3.06125      .   S
    N110   O394      3.97226      .   S
    Zr393  O395      3.05689  1_655   S
    N72    O395      3.95331      .   S
    Zr393  O396      2.12993  1_655   S
    N12    O396      3.18597      .   S
    Zr393  O397      3.04040      .   S
    N24    O397      3.94087      .   S
    Zr393  O398      3.04017  1_655   S
    N169   O398      3.95550      .   S
    Zr393  O399      3.03052      .   S
    N117   O399      3.92190      .   S
    Zr393  O400      2.11811      .   S
    N26    O400      3.12206      .   S
    Zr393  O401      2.01259  1_655   S
    N14    O401      2.80632      .   S
    Zr393  O402      3.04050  1_655   S
    N34    O402      3.94287      .   S
    Zr393  O403      1.96755      .   S
    N10    O403      2.74548      .   S
    Zr393  O404      3.04184      .   S
    N175   O404      3.95601      .   S
    Zr393  O405      3.05666  1_655   S
    N29    O405      3.97115      .   S
    Zr393  O406      3.02363  1_655   S
    N15    O406      3.91965      .   S
    Zr393  O407      3.04108      .   S
    N28    O407      3.95730      .   S
    Zr408  O409      1.96755      .   S
    N161   O409      2.74548      .   S
    Zr408  O410      3.04040      .   S
    N226   O410      3.94087      .   S
    Zr408  O411      3.04017      .   S
    N153   O411      3.95550      .   S
    Zr408  O412      2.12993      .   S
    N5     O412      3.18597      .   S
    Zr408  O413      3.03052      .   S
    N113   O413      3.92190      .   S
    Zr408  O414      3.06125      .   S
    N111   O414      3.97226      .   S
    Zr408  O415      3.05666      .   S
    N178   O415      3.97115      .   S
    Zr408  O416      2.11811      .   S
    N90    O416      3.12206      .   S
    Zr408  O417      3.04108      .   S
    N189   O417      3.95730      .   S
    Zr408  O418      3.04050      .   S
    N135   O418      3.94287      .   S
    Zr408  O419      3.04184      .   S
    N132   O419      3.95601      .   S
    Zr408  O420      2.01259      .   S
    N94    O420      2.80632      .   S
    Zr408  O421      3.02363      .   S
    N141   O421      3.91965      .   S
    Zr408  O422      3.05689      .   S
    N33    O422      3.95331      .   S
    Zr423  O424      2.01259      .   S
    N105   O424      2.80632      .   S
    Zr423  O425      2.12993      .   S
    N127   O425      3.18597      .   S
    Zr423  O426      3.04040      .   S
    N88    O426      3.94087  1_554   S
    Zr423  O427      2.11811  1_565   S
    N36    O427      3.12206      .   S
    Zr423  O428      3.04184  1_565   S
    N203   O428      3.95601      .   S
    Zr423  O429      3.06125  1_565   S
    N83    O429      3.97226  1_554   S
    Zr423  O430      3.04017      .   S
    N137   O430      3.95550  1_554   S
    Zr423  O431      3.04108      .   S
    N126   O431      3.95730      .   S
    Zr423  O432      3.03052  1_565   S
    N24    O432      3.92190      .   S
    Zr423  O433      1.96755  1_565   S
    N143   O433      2.74548      .   S
    Zr423  O434      3.05666      .   S
    N27    O434      3.97115      .   S
    Zr423  O435      3.04050  1_565   S
    N132   O435      3.94287      .   S
    Zr423  O436      3.05689      .   S
    N223   O436      3.95331      .   S
    Zr423  O437      3.02363  1_565   S
    N39    O437      3.91965  1_554   S
    Zr438  O439      3.04017  1_455   S
    N138   O439      3.95550      .   S
    Zr438  O440      3.06125      .   S
    N29    O440      3.97226      .   S
    Zr438  O441      1.96755      .   S
    N179   O441      2.74548      .   S
    Zr438  O442      3.04184      .   S
    N218   O442      3.95601      .   S
    Zr438  O443      2.12993  1_455   S
    N147   O443      3.18597      .   S
    Zr438  O444      3.04050  1_455   S
    N203   O444      3.94287  1_556   S
    Zr438  O445      3.05689  1_455   S
    N196   O445      3.95331      .   S
    Zr438  O446      3.04040      .   S
    N51    O446      3.94087      .   S
    Zr438  O447      2.11811      .   S
    N156   O447      3.12206      .   S
    Zr438  O448      2.01259  1_455   S
    N215   O448      2.80632      .   S
    Zr438  O449      3.03052      .   S
    N18    O449      3.92190      .   S
    Zr438  O450      3.04108      .   S
    N114   O450      3.95730      .   S
    Zr438  O451      3.02363  1_455   S
    N77    O451      3.91965      .   S
    Zr438  O452      3.05666  1_455   S
    N110   O452      3.97115  1_556   S
    Zr453  O454      2.12993  1_455   S
    N238   O454      3.18597      .   S
    Zr453  O455      2.11811      .   S
    N89    O455      3.12206      .   S
    Zr453  O456      3.06125      .   S
    N108   O456      3.97226      .   S
    Zr453  O457      1.96755      .   S
    N128   O457      2.74548      .   S
    Zr453  O458      3.04184      .   S
    N195   O458      3.95601      .   S
    Zr453  O459      3.04050  1_455   S
    N32    O459      3.94287      .   S
    Zr453  O460      3.05666  1_455   S
    N55    O460      3.97115      .   S
    Zr453  O461      3.04040      .   S
    N144   O461      3.94087      .   S
    Zr453  O462      2.01259  1_455   S
    N92    O462      2.80632      .   S
    Zr453  O463      3.04108      .   S
    N1     O463      3.95730      .   S
    Zr453  O464      3.02363  1_455   S
    N38    O464      3.91965      .   S
    Zr453  O465      3.04017  1_455   S
    N126   O465      3.95550      .   S
    Zr453  O466      3.03052      .   S
    N99    O466      3.92190      .   S
    Zr453  O467      3.05689  1_455   S
    N6     O467      3.95331      .   S
    Zr468  O469      2.12993      .   S
    N142   O469      3.18597      .   S
    Zr468  O470      3.06125      .   S
    N76    O470      3.97226  1_554   S
    Zr468  O471      2.11811      .   S
    N253   O471      3.12206      .   S
    Zr468  O472      3.04184      .   S
    N30    O472      3.95601      .   S
    Zr468  O473      3.04040      .   S
    N152   O473      3.94087  1_554   S
    Zr468  O474      3.04108      .   S
    N172   O474      3.95730      .   S
    Zr468  O475      1.96755      .   S
    N236   O475      2.74548      .   S
    Zr468  O476      2.01259      .   S
    N104   O476      2.80632      .   S
    Zr468  O477      3.03052      .   S
    N226   O477      3.92190      .   S
    Zr468  O478      3.04017      .   S
    N19    O478      3.95550  1_554   S
    Zr468  O479      3.04050      .   S
    N175   O479      3.94287      .   S
    Zr468  O480      3.02363      .   S
    N196   O480      3.91965  1_554   S
    Zr468  O481      3.05689      .   S
    N38    O481      3.95331      .   S
    Zr468  O482      3.05666      .   S
    N81    O482      3.97115      .   S
    Zr483  O484      3.04017      .   S
    N28    O484      3.95550      .   S
    Zr483  O485      2.12993      .   S
    N158   O485      3.18597      .   S
    Zr483  O486      2.01259      .   S
    N49    O486      2.80632      .   S
    Zr483  O487      3.04184  1_545   S
    N185   O487      3.95601      .   S
    Zr483  O488      3.04050  1_545   S
    N184   O488      3.94287      .   S
    Zr483  O489      3.06125  1_545   S
    N27    O489      3.97226      .   S
    Zr483  O490      3.04040      .   S
    N113   O490      3.94087      .   S
    Zr483  O491      1.96755  1_545   S
    N217   O491      2.74548      .   S
    Zr483  O492      3.04108      .   S
    N47    O492      3.95730      .   S
    Zr483  O493      2.11811  1_545   S
    N85    O493      3.12206      .   S
    Zr483  O494      3.05666      .   S
    N83    O494      3.97115      .   S
    Zr483  O495      3.03052  1_545   S
    N96    O495      3.92190      .   S
    Zr483  O496      3.02363  1_545   S
    N6     O496      3.91965      .   S
    Zr483  O497      3.05689      .   S
    N77    O497      3.95331      .   S
    Zr498  O499      2.12993      .   S
    N139   O499      3.18597      .   S
    Zr498  O500      2.11811      .   S
    N260   O500      3.12206      .   S
    Zr498  O501      3.06125      .   S
    N50    O501      3.97226  1_554   S
    Zr498  O502      1.96755      .   S
    N119   O502      2.74548      .   S
    Zr498  O503      3.05666      .   S
    N40    O503      3.97115      .   S
    Zr498  O504      3.04040      .   S
    N116   O504      3.94087  1_554   S
    Zr498  O505      2.01259      .   S
    N103   O505      2.80632      .   S
    Zr498  O506      3.04184      .   S
    N124   O506      3.95601      .   S
    Zr498  O507      3.04050      .   S
    N195   O507      3.94287      .   S
    Zr498  O508      3.03052      .   S
    N149   O508      3.92190      .   S
    Zr498  O509      3.04108      .   S
    N153   O509      3.95730      .   S
    Zr498  O510      3.02363      .   S
    N65    O510      3.91965  1_554   S
    Zr498  O511      3.05689      .   S
    N15    O511      3.95331      .   S
    Zr498  O512      3.04017      .   S
    N114   O512      3.95550  1_554   S
    Zr513  O514      2.11811      .   S
    N162   O514      3.12206      .   S
    Zr513  O515      3.04184      .   S
    N32    O515      3.95601      .   S
    Zr513  O516      3.05689      .   S
    N37    O516      3.95331      .   S
    Zr513  O517      3.06125      .   S
    N81    O517      3.97226      .   S
    Zr513  O518      3.03052      .   S
    N52    O518      3.92190      .   S
    Zr513  O519      2.01259      .   S
    N210   O519      2.80632      .   S
    Zr513  O520      3.04040      .   S
    N117   O520      3.94087      .   S
    Zr513  O521      3.04017      .   S
    N189   O521      3.95550      .   S
    Zr513  O522      3.05666      .   S
    N76    O522      3.97115      .   S
    Zr513  O523      1.96755      .   S
    N41    O523      2.74548      .   S
    Zr513  O524      3.04108      .   S
    N138   O524      3.95730      .   S
    Zr513  O525      3.04050      .   S
    N173   O525      3.94287      .   S
    Zr513  O526      2.12993      .   S
    N63    O526      3.18597      .   S
    Zr513  O527      3.02363      .   S
    N22    O527      3.91965      .   S
