# CIF file generated by openbabel 2.4.90, see http://openbabel.sf.net
data_I
_chemical_name_common ''
_cell_length_a 39.222
_cell_length_b 26.018
_cell_length_c 27.887
_cell_angle_alpha 90
_cell_angle_beta 90
_cell_angle_gamma 90
_space_group_name_H-M_alt 'P 1'
_space_group_name_Hall 'P 1'
loop_
    _symmetry_equiv_pos_as_xyz
    x,y,z
loop_
    _atom_site_label
    _atom_site_type_symbol
    _atom_site_fract_x
    _atom_site_fract_y
    _atom_site_fract_z
    _atom_site_occupancy
    Zr0     Zr   0.01253   0.19131   0.70101   1.000
    Zr1     Zr   0.98690   0.30022   0.55889   1.000
    Zr2     Zr   0.93974   0.21879   0.63324   1.000
    Zr3     Zr   0.98664   0.31888   0.68418   1.000
    Zr4     Zr   0.01232   0.17290   0.57488   1.000
    Zr5     Zr   0.05965   0.27276   0.62667   1.000
    Zr6     Zr   0.96218   0.29020   0.62420   1.000
    Zr7     Zr   0.98509   0.17840   0.63840   1.000
    Zr8     Zr   0.15257   0.48090   0.83440   1.000
    Zr9     Zr   0.01749   0.33460   0.61870   1.000
    Zr10    Zr   0.02540   0.37080   0.61410   1.000
    Zr11    Zr   0.84829   0.00150   0.83270   1.000
    Zr12    Zr   0.81786   0.05430   0.78430   1.000
    Zr13    Zr   0.81637   0.05290   0.48230   1.000
    Zr14    Zr   0.15218   0.48590   0.42510   1.000
    Zr15    Zr   0.00919   0.18980   0.26150   1.000
    Zr16    Zr   0.07849   0.33900   0.66810   1.000
    Zr17    Zr   0.84718   0.00610   0.42950   1.000
    Zr18    Zr   0.18238   0.41970   0.45740   1.000
    Zr19    Zr   0.92138   0.15060   0.59370   1.000
    Zr20    Zr   0.03232   0.36580   0.71000   1.000
    Zr21    Zr   0.96593   0.24110   0.70180   1.000
    Zr22    Zr   0.95170   0.23900   0.73140   1.000
    Zr23    Zr   0.00865   0.18130   0.49660   1.000
    Zr24    Zr   0.18320   0.42280   0.79280   1.000
    Zr25    Zr   0.99170   0.27270   0.27480   1.000
    Zr26    Zr   0.92244   0.16310   0.68750   1.000
    Zr27    Zr   0.07750   0.32590   0.57010   1.000
    Zr28    Zr   0.96944   0.14400   0.73090   1.000
    Zr29    Zr   0.06330   0.36450   0.70090   1.000
    Zr30    Zr   0.99240   0.26680   0.48470   1.000
    Zr31    Zr   0.15610   0.44590   0.80290   1.000
    Zr32    Zr   0.03102   0.33990   0.52340   1.000
    Zr33    Zr   0.84530   0.03600   0.80120   1.000
    Zr34    Zr   0.93690   0.12120   0.56510   1.000
    Zr35    Zr   0.93830   0.14080   0.72040   1.000
    Zr36    Zr   0.15530   0.44460   0.44850   1.000
    Zr37    Zr   0.84360   0.03460   0.46570   1.000
    Zr38    Zr   0.00120   0.22120   0.47170   1.000
    Zr39    Zr   0.02540   0.26480   0.68120   1.000
    Zr40    Zr   0.02508   0.25010   0.57660   1.000
    Zr41    Zr   0.04737   0.18550   0.63710   1.000
    Zr42    Zr   0.06730   0.16170   0.64000   1.000
    Zr43    Zr   0.96573   0.22070   0.56150   1.000
    Zr44    Zr   0.95140   0.21030   0.53340   1.000
    Zr45    Zr   0.06200   0.34550   0.53430   1.000
    Zr46    Zr   0.96844   0.11880   0.55800   1.000
    Zr47    Zr   0.99990   0.22740   0.28830   1.000
    Zr48    Zr   0.98747   0.80869   0.70101   1.000
    Zr49    Zr   0.26253   0.05869   0.95101   1.000
    Zr50    Zr   0.23747   0.44131   0.95101   1.000
    Zr51    Zr   0.51253   0.19131   0.20101   1.000
    Zr52    Zr   0.48747   0.80869   0.20101   1.000
    Zr53    Zr   0.76253   0.05869   0.45101   1.000
    Zr54    Zr   0.73747   0.44131   0.45101   1.000
    Zr55    Zr   0.01253   0.69131   0.20101   1.000
    Zr56    Zr   0.98747   0.30869   0.20101   1.000
    Zr57    Zr   0.26253   0.55869   0.45101   1.000
    Zr58    Zr   0.23747   0.94131   0.45101   1.000
    Zr59    Zr   0.51253   0.69131   0.70101   1.000
    Zr60    Zr   0.48747   0.30869   0.70101   1.000
    Zr61    Zr   0.76253   0.55869   0.95101   1.000
    Zr62    Zr   0.73747   0.94131   0.95101   1.000
    Zr63    Zr   0.01310   0.69978   0.55889   1.000
    Zr64    Zr   0.23690   0.94978   0.80889   1.000
    Zr65    Zr   0.26310   0.55022   0.80889   1.000
    Zr66    Zr   0.48690   0.30022   0.05889   1.000
    Zr67    Zr   0.51310   0.69978   0.05889   1.000
    Zr68    Zr   0.73690   0.94978   0.30889   1.000
    Zr69    Zr   0.76310   0.55022   0.30889   1.000
    Zr70    Zr   0.98690   0.80022   0.05889   1.000
    Zr71    Zr   0.01310   0.19978   0.05889   1.000
    Zr72    Zr   0.23690   0.44978   0.30889   1.000
    Zr73    Zr   0.26310   0.05022   0.30889   1.000
    Zr74    Zr   0.48690   0.80022   0.55889   1.000
    Zr75    Zr   0.51310   0.19978   0.55889   1.000
    Zr76    Zr   0.73690   0.44978   0.80889   1.000
    Zr77    Zr   0.76310   0.05022   0.80889   1.000
    Zr78    Zr   0.06026   0.78121   0.63324   1.000
    Zr79    Zr   0.18974   0.03121   0.88324   1.000
    Zr80    Zr   0.31026   0.46879   0.88324   1.000
    Zr81    Zr   0.43974   0.21879   0.13324   1.000
    Zr82    Zr   0.56026   0.78121   0.13324   1.000
    Zr83    Zr   0.68974   0.03121   0.38324   1.000
    Zr84    Zr   0.81026   0.46879   0.38324   1.000
    Zr85    Zr   0.93974   0.71879   0.13324   1.000
    Zr86    Zr   0.06026   0.28121   0.13324   1.000
    Zr87    Zr   0.18974   0.53121   0.38324   1.000
    Zr88    Zr   0.31026   0.96879   0.38324   1.000
    Zr89    Zr   0.43974   0.71879   0.63324   1.000
    Zr90    Zr   0.56026   0.28121   0.63324   1.000
    Zr91    Zr   0.68974   0.53121   0.88324   1.000
    Zr92    Zr   0.81026   0.96879   0.88324   1.000
    Zr93    Zr   0.01336   0.68112   0.68418   1.000
    Zr94    Zr   0.23664   0.93112   0.93418   1.000
    Zr95    Zr   0.26336   0.56888   0.93418   1.000
    Zr96    Zr   0.48664   0.31888   0.18418   1.000
    Zr97    Zr   0.51336   0.68112   0.18418   1.000
    Zr98    Zr   0.73664   0.93112   0.43418   1.000
    Zr99    Zr   0.76336   0.56888   0.43418   1.000
    Zr100   Zr   0.98664   0.81888   0.18418   1.000
    Zr101   Zr   0.01336   0.18112   0.18418   1.000
    Zr102   Zr   0.23664   0.43112   0.43418   1.000
    Zr103   Zr   0.26336   0.06888   0.43418   1.000
    Zr104   Zr   0.48664   0.81888   0.68418   1.000
    Zr105   Zr   0.51336   0.18112   0.68418   1.000
    Zr106   Zr   0.73664   0.43112   0.93418   1.000
    Zr107   Zr   0.76336   0.06888   0.93418   1.000
    Zr108   Zr   0.98768   0.82710   0.57488   1.000
    Zr109   Zr   0.26232   0.07710   0.82488   1.000
    Zr110   Zr   0.23768   0.42290   0.82488   1.000
    Zr111   Zr   0.51232   0.17290   0.07488   1.000
    Zr112   Zr   0.48768   0.82710   0.07488   1.000
    Zr113   Zr   0.76232   0.07710   0.32488   1.000
    Zr114   Zr   0.73768   0.42290   0.32488   1.000
    Zr115   Zr   0.01232   0.67290   0.07488   1.000
    Zr116   Zr   0.98768   0.32710   0.07488   1.000
    Zr117   Zr   0.26232   0.57710   0.32488   1.000
    Zr118   Zr   0.23768   0.92290   0.32488   1.000
    Zr119   Zr   0.51232   0.67290   0.57488   1.000
    Zr120   Zr   0.48768   0.32710   0.57488   1.000
    Zr121   Zr   0.76232   0.57710   0.82488   1.000
    Zr122   Zr   0.73768   0.92290   0.82488   1.000
    Zr123   Zr   0.94035   0.72724   0.62667   1.000
    Zr124   Zr   0.30965   0.97724   0.87667   1.000
    Zr125   Zr   0.19035   0.52276   0.87667   1.000
    Zr126   Zr   0.55965   0.27276   0.12667   1.000
    Zr127   Zr   0.44035   0.72724   0.12667   1.000
    Zr128   Zr   0.80965   0.97724   0.37667   1.000
    Zr129   Zr   0.69035   0.52276   0.37667   1.000
    Zr130   Zr   0.05965   0.77276   0.12667   1.000
    Zr131   Zr   0.94035   0.22724   0.12667   1.000
    Zr132   Zr   0.30965   0.47724   0.37667   1.000
    Zr133   Zr   0.19035   0.02276   0.37667   1.000
    Zr134   Zr   0.55965   0.77276   0.62667   1.000
    Zr135   Zr   0.44035   0.22724   0.62667   1.000
    Zr136   Zr   0.80965   0.47724   0.87667   1.000
    Zr137   Zr   0.69035   0.02276   0.87667   1.000
    Zr138   Zr   0.03782   0.70980   0.62420   1.000
    Zr139   Zr   0.21218   0.95980   0.87420   1.000
    Zr140   Zr   0.28782   0.54020   0.87420   1.000
    Zr141   Zr   0.46218   0.29020   0.12420   1.000
    Zr142   Zr   0.53782   0.70980   0.12420   1.000
    Zr143   Zr   0.71218   0.95980   0.37420   1.000
    Zr144   Zr   0.78782   0.54020   0.37420   1.000
    Zr145   Zr   0.96218   0.79020   0.12420   1.000
    Zr146   Zr   0.03782   0.20980   0.12420   1.000
    Zr147   Zr   0.21218   0.45980   0.37420   1.000
    Zr148   Zr   0.28782   0.04020   0.37420   1.000
    Zr149   Zr   0.46218   0.79020   0.62420   1.000
    Zr150   Zr   0.53782   0.20980   0.62420   1.000
    Zr151   Zr   0.71218   0.45980   0.87420   1.000
    Zr152   Zr   0.78782   0.04020   0.87420   1.000
    Zr153   Zr   0.01491   0.82160   0.63840   1.000
    Zr154   Zr   0.23509   0.07160   0.88840   1.000
    Zr155   Zr   0.26491   0.42840   0.88840   1.000
    Zr156   Zr   0.48509   0.17840   0.13840   1.000
    Zr157   Zr   0.51491   0.82160   0.13840   1.000
    Zr158   Zr   0.73509   0.07160   0.38840   1.000
    Zr159   Zr   0.76491   0.42840   0.38840   1.000
    Zr160   Zr   0.98509   0.67840   0.13840   1.000
    Zr161   Zr   0.01491   0.32160   0.13840   1.000
    Zr162   Zr   0.23509   0.57160   0.38840   1.000
    Zr163   Zr   0.26491   0.92840   0.38840   1.000
    Zr164   Zr   0.48509   0.67840   0.63840   1.000
    Zr165   Zr   0.51491   0.32160   0.63840   1.000
    Zr166   Zr   0.73509   0.57160   0.88840   1.000
    Zr167   Zr   0.76491   0.92840   0.88840   1.000
    Zr168   Zr   0.84743   0.51910   0.83440   1.000
    Zr169   Zr   0.40257   0.76910   0.08440   1.000
    Zr170   Zr   0.09743   0.73090   0.08440   1.000
    Zr171   Zr   0.65257   0.48090   0.33440   1.000
    Zr172   Zr   0.34743   0.51910   0.33440   1.000
    Zr173   Zr   0.90257   0.76910   0.58440   1.000
    Zr174   Zr   0.59743   0.73090   0.58440   1.000
    Zr175   Zr   0.15257   0.98090   0.33440   1.000
    Zr176   Zr   0.84743   0.01910   0.33440   1.000
    Zr177   Zr   0.40257   0.26910   0.58440   1.000
    Zr178   Zr   0.09743   0.23090   0.58440   1.000
    Zr179   Zr   0.65257   0.98090   0.83440   1.000
    Zr180   Zr   0.34743   0.01910   0.83440   1.000
    Zr181   Zr   0.90257   0.26910   0.08440   1.000
    Zr182   Zr   0.59743   0.23090   0.08440   1.000
    Zr183   Zr   0.98251   0.66540   0.61870   1.000
    Zr184   Zr   0.26749   0.91540   0.86870   1.000
    Zr185   Zr   0.23251   0.58460   0.86870   1.000
    Zr186   Zr   0.51749   0.33460   0.11870   1.000
    Zr187   Zr   0.48251   0.66540   0.11870   1.000
    Zr188   Zr   0.76749   0.91540   0.36870   1.000
    Zr189   Zr   0.73251   0.58460   0.36870   1.000
    Zr190   Zr   0.01749   0.83460   0.11870   1.000
    Zr191   Zr   0.98251   0.16540   0.11870   1.000
    Zr192   Zr   0.26749   0.41540   0.36870   1.000
    Zr193   Zr   0.23251   0.08460   0.36870   1.000
    Zr194   Zr   0.51749   0.83460   0.61870   1.000
    Zr195   Zr   0.48251   0.16540   0.61870   1.000
    Zr196   Zr   0.76749   0.41540   0.86870   1.000
    Zr197   Zr   0.73251   0.08460   0.86870   1.000
    Zr198   Zr   0.97460   0.62920   0.61410   1.000
    Zr199   Zr   0.27540   0.87920   0.86410   1.000
    Zr200   Zr   0.22460   0.62080   0.86410   1.000
    Zr201   Zr   0.52540   0.37080   0.11410   1.000
    Zr202   Zr   0.47460   0.62920   0.11410   1.000
    Zr203   Zr   0.77540   0.87920   0.36410   1.000
    Zr204   Zr   0.72460   0.62080   0.36410   1.000
    Zr205   Zr   0.02540   0.87080   0.11410   1.000
    Zr206   Zr   0.97460   0.12920   0.11410   1.000
    Zr207   Zr   0.27540   0.37920   0.36410   1.000
    Zr208   Zr   0.22460   0.12080   0.36410   1.000
    Zr209   Zr   0.52540   0.87080   0.61410   1.000
    Zr210   Zr   0.47460   0.12920   0.61410   1.000
    Zr211   Zr   0.77540   0.37920   0.86410   1.000
    Zr212   Zr   0.72460   0.12080   0.86410   1.000
    Zr213   Zr   0.15171   0.99850   0.83270   1.000
    Zr214   Zr   0.09829   0.24850   0.08270   1.000
    Zr215   Zr   0.40171   0.25150   0.08270   1.000
    Zr216   Zr   0.34829   0.00150   0.33270   1.000
    Zr217   Zr   0.65171   0.99850   0.33270   1.000
    Zr218   Zr   0.59829   0.24850   0.58270   1.000
    Zr219   Zr   0.90171   0.25150   0.58270   1.000
    Zr220   Zr   0.84829   0.50150   0.33270   1.000
    Zr221   Zr   0.15171   0.49850   0.33270   1.000
    Zr222   Zr   0.09829   0.74850   0.58270   1.000
    Zr223   Zr   0.40171   0.75150   0.58270   1.000
    Zr224   Zr   0.34829   0.50150   0.83270   1.000
    Zr225   Zr   0.65171   0.49850   0.83270   1.000
    Zr226   Zr   0.59829   0.74850   0.08270   1.000
    Zr227   Zr   0.90171   0.75150   0.08270   1.000
    Zr228   Zr   0.18214   0.94570   0.78430   1.000
    Zr229   Zr   0.06786   0.19570   0.03430   1.000
    Zr230   Zr   0.43214   0.30430   0.03430   1.000
    Zr231   Zr   0.31786   0.05430   0.28430   1.000
    Zr232   Zr   0.68214   0.94570   0.28430   1.000
    Zr233   Zr   0.56786   0.19570   0.53430   1.000
    Zr234   Zr   0.93214   0.30430   0.53430   1.000
    Zr235   Zr   0.81786   0.55430   0.28430   1.000
    Zr236   Zr   0.18214   0.44570   0.28430   1.000
    Zr237   Zr   0.06786   0.69570   0.53430   1.000
    Zr238   Zr   0.43214   0.80430   0.53430   1.000
    Zr239   Zr   0.31786   0.55430   0.78430   1.000
    Zr240   Zr   0.68214   0.44570   0.78430   1.000
    Zr241   Zr   0.56786   0.69570   0.03430   1.000
    Zr242   Zr   0.93214   0.80430   0.03430   1.000
    Zr243   Zr   0.18363   0.94710   0.48230   1.000
    Zr244   Zr   0.06637   0.19710   0.73230   1.000
    Zr245   Zr   0.43363   0.30290   0.73230   1.000
    Zr246   Zr   0.31637   0.05290   0.98230   1.000
    Zr247   Zr   0.68363   0.94710   0.98230   1.000
    Zr248   Zr   0.56637   0.19710   0.23230   1.000
    Zr249   Zr   0.93363   0.30290   0.23230   1.000
    Zr250   Zr   0.81637   0.55290   0.98230   1.000
    Zr251   Zr   0.18363   0.44710   0.98230   1.000
    Zr252   Zr   0.06637   0.69710   0.23230   1.000
    Zr253   Zr   0.43363   0.80290   0.23230   1.000
    Zr254   Zr   0.31637   0.55290   0.48230   1.000
    Zr255   Zr   0.68363   0.44710   0.48230   1.000
    Zr256   Zr   0.56637   0.69710   0.73230   1.000
    Zr257   Zr   0.93363   0.80290   0.73230   1.000
    Zr258   Zr   0.84782   0.51410   0.42510   1.000
    Zr259   Zr   0.40218   0.76410   0.67510   1.000
    Zr260   Zr   0.09782   0.73590   0.67510   1.000
    Zr261   Zr   0.65218   0.48590   0.92510   1.000
    Zr262   Zr   0.34782   0.51410   0.92510   1.000
    Zr263   Zr   0.90218   0.76410   0.17510   1.000
    Zr264   Zr   0.59782   0.73590   0.17510   1.000
    Zr265   Zr   0.15218   0.98590   0.92510   1.000
    Zr266   Zr   0.84782   0.01410   0.92510   1.000
    Zr267   Zr   0.40218   0.26410   0.17510   1.000
    Zr268   Zr   0.09782   0.23590   0.17510   1.000
    Zr269   Zr   0.65218   0.98590   0.42510   1.000
    Zr270   Zr   0.34782   0.01410   0.42510   1.000
    Zr271   Zr   0.90218   0.26410   0.67510   1.000
    Zr272   Zr   0.59782   0.23590   0.67510   1.000
    Zr273   Zr   0.99081   0.81020   0.26150   1.000
    Zr274   Zr   0.25919   0.06020   0.51150   1.000
    Zr275   Zr   0.24081   0.43980   0.51150   1.000
    Zr276   Zr   0.50919   0.18980   0.76150   1.000
    Zr277   Zr   0.49081   0.81020   0.76150   1.000
    Zr278   Zr   0.75919   0.06020   0.01150   1.000
    Zr279   Zr   0.74081   0.43980   0.01150   1.000
    Zr280   Zr   0.00919   0.68980   0.76150   1.000
    Zr281   Zr   0.99081   0.31020   0.76150   1.000
    Zr282   Zr   0.25919   0.56020   0.01150   1.000
    Zr283   Zr   0.24081   0.93980   0.01150   1.000
    Zr284   Zr   0.50919   0.68980   0.26150   1.000
    Zr285   Zr   0.49081   0.31020   0.26150   1.000
    Zr286   Zr   0.75919   0.56020   0.51150   1.000
    Zr287   Zr   0.74081   0.93980   0.51150   1.000
    Zr288   Zr   0.92151   0.66100   0.66810   1.000
    Zr289   Zr   0.32849   0.91100   0.91810   1.000
    Zr290   Zr   0.17151   0.58900   0.91810   1.000
    Zr291   Zr   0.57849   0.33900   0.16810   1.000
    Zr292   Zr   0.42151   0.66100   0.16810   1.000
    Zr293   Zr   0.82849   0.91100   0.41810   1.000
    Zr294   Zr   0.67151   0.58900   0.41810   1.000
    Zr295   Zr   0.07849   0.83900   0.16810   1.000
    Zr296   Zr   0.92151   0.16100   0.16810   1.000
    Zr297   Zr   0.32849   0.41100   0.41810   1.000
    Zr298   Zr   0.17151   0.08900   0.41810   1.000
    Zr299   Zr   0.57849   0.83900   0.66810   1.000
    Zr300   Zr   0.42151   0.16100   0.66810   1.000
    Zr301   Zr   0.82849   0.41100   0.91810   1.000
    Zr302   Zr   0.67151   0.08900   0.91810   1.000
    Zr303   Zr   0.15282   0.99390   0.42950   1.000
    Zr304   Zr   0.09718   0.24390   0.67950   1.000
    Zr305   Zr   0.40282   0.25610   0.67950   1.000
    Zr306   Zr   0.34718   0.00610   0.92950   1.000
    Zr307   Zr   0.65282   0.99390   0.92950   1.000
    Zr308   Zr   0.59718   0.24390   0.17950   1.000
    Zr309   Zr   0.90282   0.25610   0.17950   1.000
    Zr310   Zr   0.84718   0.50610   0.92950   1.000
    Zr311   Zr   0.15282   0.49390   0.92950   1.000
    Zr312   Zr   0.09718   0.74390   0.17950   1.000
    Zr313   Zr   0.40282   0.75610   0.17950   1.000
    Zr314   Zr   0.34718   0.50610   0.42950   1.000
    Zr315   Zr   0.65282   0.49390   0.42950   1.000
    Zr316   Zr   0.59718   0.74390   0.67950   1.000
    Zr317   Zr   0.90282   0.75610   0.67950   1.000
    Zr318   Zr   0.81762   0.58030   0.45740   1.000
    Zr319   Zr   0.43238   0.83030   0.70740   1.000
    Zr320   Zr   0.06762   0.66970   0.70740   1.000
    Zr321   Zr   0.68238   0.41970   0.95740   1.000
    Zr322   Zr   0.31762   0.58030   0.95740   1.000
    Zr323   Zr   0.93238   0.83030   0.20740   1.000
    Zr324   Zr   0.56762   0.66970   0.20740   1.000
    Zr325   Zr   0.18238   0.91970   0.95740   1.000
    Zr326   Zr   0.81762   0.08030   0.95740   1.000
    Zr327   Zr   0.43238   0.33030   0.20740   1.000
    Zr328   Zr   0.06762   0.16970   0.20740   1.000
    Zr329   Zr   0.68238   0.91970   0.45740   1.000
    Zr330   Zr   0.31762   0.08030   0.45740   1.000
    Zr331   Zr   0.93238   0.33030   0.70740   1.000
    Zr332   Zr   0.56762   0.16970   0.70740   1.000
    Zr333   Zr   0.07862   0.84940   0.59370   1.000
    Zr334   Zr   0.17138   0.09940   0.84370   1.000
    Zr335   Zr   0.32862   0.40060   0.84370   1.000
    Zr336   Zr   0.42138   0.15060   0.09370   1.000
    Zr337   Zr   0.57862   0.84940   0.09370   1.000
    Zr338   Zr   0.67138   0.09940   0.34370   1.000
    Zr339   Zr   0.82862   0.40060   0.34370   1.000
    Zr340   Zr   0.92138   0.65060   0.09370   1.000
    Zr341   Zr   0.07862   0.34940   0.09370   1.000
    Zr342   Zr   0.17138   0.59940   0.34370   1.000
    Zr343   Zr   0.32862   0.90060   0.34370   1.000
    Zr344   Zr   0.42138   0.65060   0.59370   1.000
    Zr345   Zr   0.57862   0.34940   0.59370   1.000
    Zr346   Zr   0.67138   0.59940   0.84370   1.000
    Zr347   Zr   0.82862   0.90060   0.84370   1.000
    Zr348   Zr   0.96768   0.63420   0.71000   1.000
    Zr349   Zr   0.28232   0.88420   0.96000   1.000
    Zr350   Zr   0.21768   0.61580   0.96000   1.000
    Zr351   Zr   0.53232   0.36580   0.21000   1.000
    Zr352   Zr   0.46768   0.63420   0.21000   1.000
    Zr353   Zr   0.78232   0.88420   0.46000   1.000
    Zr354   Zr   0.71768   0.61580   0.46000   1.000
    Zr355   Zr   0.03232   0.86580   0.21000   1.000
    Zr356   Zr   0.96768   0.13420   0.21000   1.000
    Zr357   Zr   0.28232   0.38420   0.46000   1.000
    Zr358   Zr   0.21768   0.11580   0.46000   1.000
    Zr359   Zr   0.53232   0.86580   0.71000   1.000
    Zr360   Zr   0.46768   0.13420   0.71000   1.000
    Zr361   Zr   0.78232   0.38420   0.96000   1.000
    Zr362   Zr   0.71768   0.11580   0.96000   1.000
    Zr363   Zr   0.03407   0.75890   0.70180   1.000
    Zr364   Zr   0.21593   0.00890   0.95180   1.000
    Zr365   Zr   0.28407   0.49110   0.95180   1.000
    Zr366   Zr   0.46593   0.24110   0.20180   1.000
    Zr367   Zr   0.53407   0.75890   0.20180   1.000
    Zr368   Zr   0.71593   0.00890   0.45180   1.000
    Zr369   Zr   0.78407   0.49110   0.45180   1.000
    Zr370   Zr   0.96593   0.74110   0.20180   1.000
    Zr371   Zr   0.03407   0.25890   0.20180   1.000
    Zr372   Zr   0.21593   0.50890   0.45180   1.000
    Zr373   Zr   0.28407   0.99110   0.45180   1.000
    Zr374   Zr   0.46593   0.74110   0.70180   1.000
    Zr375   Zr   0.53407   0.25890   0.70180   1.000
    Zr376   Zr   0.71593   0.50890   0.95180   1.000
    Zr377   Zr   0.78407   0.99110   0.95180   1.000
    Zr378   Zr   0.04830   0.76100   0.73140   1.000
    Zr379   Zr   0.20170   0.01100   0.98140   1.000
    Zr380   Zr   0.29830   0.48900   0.98140   1.000
    Zr381   Zr   0.45170   0.23900   0.23140   1.000
    Zr382   Zr   0.54830   0.76100   0.23140   1.000
    Zr383   Zr   0.70170   0.01100   0.48140   1.000
    Zr384   Zr   0.79830   0.48900   0.48140   1.000
    Zr385   Zr   0.95170   0.73900   0.23140   1.000
    Zr386   Zr   0.04830   0.26100   0.23140   1.000
    Zr387   Zr   0.20170   0.51100   0.48140   1.000
    Zr388   Zr   0.29830   0.98900   0.48140   1.000
    Zr389   Zr   0.45170   0.73900   0.73140   1.000
    Zr390   Zr   0.54830   0.26100   0.73140   1.000
    Zr391   Zr   0.70170   0.51100   0.98140   1.000
    Zr392   Zr   0.79830   0.98900   0.98140   1.000
    Zr393   Zr   0.99135   0.81870   0.49660   1.000
    Zr394   Zr   0.25865   0.06870   0.74660   1.000
    Zr395   Zr   0.24135   0.43130   0.74660   1.000
    Zr396   Zr   0.50865   0.18130   0.99660   1.000
    Zr397   Zr   0.49135   0.81870   0.99660   1.000
    Zr398   Zr   0.75865   0.06870   0.24660   1.000
    Zr399   Zr   0.74135   0.43130   0.24660   1.000
    Zr400   Zr   0.00865   0.68130   0.99660   1.000
    Zr401   Zr   0.99135   0.31870   0.99660   1.000
    Zr402   Zr   0.25865   0.56870   0.24660   1.000
    Zr403   Zr   0.24135   0.93130   0.24660   1.000
    Zr404   Zr   0.50865   0.68130   0.49660   1.000
    Zr405   Zr   0.49135   0.31870   0.49660   1.000
    Zr406   Zr   0.75865   0.56870   0.74660   1.000
    Zr407   Zr   0.74135   0.93130   0.74660   1.000
    Zr408   Zr   0.81680   0.57720   0.79280   1.000
    Zr409   Zr   0.43320   0.82720   0.04280   1.000
    Zr410   Zr   0.06680   0.67280   0.04280   1.000
    Zr411   Zr   0.68320   0.42280   0.29280   1.000
    Zr412   Zr   0.31680   0.57720   0.29280   1.000
    Zr413   Zr   0.93320   0.82720   0.54280   1.000
    Zr414   Zr   0.56680   0.67280   0.54280   1.000
    Zr415   Zr   0.18320   0.92280   0.29280   1.000
    Zr416   Zr   0.81680   0.07720   0.29280   1.000
    Zr417   Zr   0.43320   0.32720   0.54280   1.000
    Zr418   Zr   0.06680   0.17280   0.54280   1.000
    Zr419   Zr   0.68320   0.92280   0.79280   1.000
    Zr420   Zr   0.31680   0.07720   0.79280   1.000
    Zr421   Zr   0.93320   0.32720   0.04280   1.000
    Zr422   Zr   0.56680   0.17280   0.04280   1.000
    Zr423   Zr   0.00830   0.72730   0.27480   1.000
    Zr424   Zr   0.24170   0.97730   0.52480   1.000
    Zr425   Zr   0.25830   0.52270   0.52480   1.000
    Zr426   Zr   0.49170   0.27270   0.77480   1.000
    Zr427   Zr   0.50830   0.72730   0.77480   1.000
    Zr428   Zr   0.74170   0.97730   0.02480   1.000
    Zr429   Zr   0.75830   0.52270   0.02480   1.000
    Zr430   Zr   0.99170   0.77270   0.77480   1.000
    Zr431   Zr   0.00830   0.22730   0.77480   1.000
    Zr432   Zr   0.24170   0.47730   0.02480   1.000
    Zr433   Zr   0.25830   0.02270   0.02480   1.000
    Zr434   Zr   0.49170   0.77270   0.27480   1.000
    Zr435   Zr   0.50830   0.22730   0.27480   1.000
    Zr436   Zr   0.74170   0.47730   0.52480   1.000
    Zr437   Zr   0.75830   0.02270   0.52480   1.000
    Zr438   Zr   0.07756   0.83690   0.68750   1.000
    Zr439   Zr   0.17244   0.08690   0.93750   1.000
    Zr440   Zr   0.32756   0.41310   0.93750   1.000
    Zr441   Zr   0.42244   0.16310   0.18750   1.000
    Zr442   Zr   0.57756   0.83690   0.18750   1.000
    Zr443   Zr   0.67244   0.08690   0.43750   1.000
    Zr444   Zr   0.82756   0.41310   0.43750   1.000
    Zr445   Zr   0.92244   0.66310   0.18750   1.000
    Zr446   Zr   0.07756   0.33690   0.18750   1.000
    Zr447   Zr   0.17244   0.58690   0.43750   1.000
    Zr448   Zr   0.32756   0.91310   0.43750   1.000
    Zr449   Zr   0.42244   0.66310   0.68750   1.000
    Zr450   Zr   0.57756   0.33690   0.68750   1.000
    Zr451   Zr   0.67244   0.58690   0.93750   1.000
    Zr452   Zr   0.82756   0.91310   0.93750   1.000
    Zr453   Zr   0.92250   0.67410   0.57010   1.000
    Zr454   Zr   0.32750   0.92410   0.82010   1.000
    Zr455   Zr   0.17250   0.57590   0.82010   1.000
    Zr456   Zr   0.57750   0.32590   0.07010   1.000
    Zr457   Zr   0.42250   0.67410   0.07010   1.000
    Zr458   Zr   0.82750   0.92410   0.32010   1.000
    Zr459   Zr   0.67250   0.57590   0.32010   1.000
    Zr460   Zr   0.07750   0.82590   0.07010   1.000
    Zr461   Zr   0.92250   0.17410   0.07010   1.000
    Zr462   Zr   0.32750   0.42410   0.32010   1.000
    Zr463   Zr   0.17250   0.07590   0.32010   1.000
    Zr464   Zr   0.57750   0.82590   0.57010   1.000
    Zr465   Zr   0.42250   0.17410   0.57010   1.000
    Zr466   Zr   0.82750   0.42410   0.82010   1.000
    Zr467   Zr   0.67250   0.07590   0.82010   1.000
    Zr468   Zr   0.03056   0.85600   0.73090   1.000
    Zr469   Zr   0.21944   0.10600   0.98090   1.000
    Zr470   Zr   0.28056   0.39400   0.98090   1.000
    Zr471   Zr   0.46944   0.14400   0.23090   1.000
    Zr472   Zr   0.53056   0.85600   0.23090   1.000
    Zr473   Zr   0.71944   0.10600   0.48090   1.000
    Zr474   Zr   0.78056   0.39400   0.48090   1.000
    Zr475   Zr   0.96944   0.64400   0.23090   1.000
    Zr476   Zr   0.03056   0.35600   0.23090   1.000
    Zr477   Zr   0.21944   0.60600   0.48090   1.000
    Zr478   Zr   0.28056   0.89400   0.48090   1.000
    Zr479   Zr   0.46944   0.64400   0.73090   1.000
    Zr480   Zr   0.53056   0.35600   0.73090   1.000
    Zr481   Zr   0.71944   0.60600   0.98090   1.000
    Zr482   Zr   0.78056   0.89400   0.98090   1.000
    Zr483   Zr   0.93670   0.63550   0.70090   1.000
    Zr484   Zr   0.31330   0.88550   0.95090   1.000
    Zr485   Zr   0.18670   0.61450   0.95090   1.000
    Zr486   Zr   0.56330   0.36450   0.20090   1.000
    Zr487   Zr   0.43670   0.63550   0.20090   1.000
    Zr488   Zr   0.81330   0.88550   0.45090   1.000
    Zr489   Zr   0.68670   0.61450   0.45090   1.000
    Zr490   Zr   0.06330   0.86450   0.20090   1.000
    Zr491   Zr   0.93670   0.13550   0.20090   1.000
    Zr492   Zr   0.31330   0.38550   0.45090   1.000
    Zr493   Zr   0.18670   0.11450   0.45090   1.000
    Zr494   Zr   0.56330   0.86450   0.70090   1.000
    Zr495   Zr   0.43670   0.13550   0.70090   1.000
    Zr496   Zr   0.81330   0.38550   0.95090   1.000
    Zr497   Zr   0.68670   0.11450   0.95090   1.000
    Zr498   Zr   0.00760   0.73320   0.48470   1.000
    Zr499   Zr   0.24240   0.98320   0.73470   1.000
    Zr500   Zr   0.25760   0.51680   0.73470   1.000
    Zr501   Zr   0.49240   0.26680   0.98470   1.000
    Zr502   Zr   0.50760   0.73320   0.98470   1.000
    Zr503   Zr   0.74240   0.98320   0.23470   1.000
    Zr504   Zr   0.75760   0.51680   0.23470   1.000
    Zr505   Zr   0.99240   0.76680   0.98470   1.000
    Zr506   Zr   0.00760   0.23320   0.98470   1.000
    Zr507   Zr   0.24240   0.48320   0.23470   1.000
    Zr508   Zr   0.25760   0.01680   0.23470   1.000
    Zr509   Zr   0.49240   0.76680   0.48470   1.000
    Zr510   Zr   0.50760   0.23320   0.48470   1.000
    Zr511   Zr   0.74240   0.48320   0.73470   1.000
    Zr512   Zr   0.75760   0.01680   0.73470   1.000
    Zr513   Zr   0.84390   0.55410   0.80290   1.000
    Zr514   Zr   0.40610   0.80410   0.05290   1.000
    Zr515   Zr   0.09390   0.69590   0.05290   1.000
    Zr516   Zr   0.65610   0.44590   0.30290   1.000
    Zr517   Zr   0.34390   0.55410   0.30290   1.000
    Zr518   Zr   0.90610   0.80410   0.55290   1.000
    Zr519   Zr   0.59390   0.69590   0.55290   1.000
    Zr520   Zr   0.15610   0.94590   0.30290   1.000
    Zr521   Zr   0.84390   0.05410   0.30290   1.000
    Zr522   Zr   0.40610   0.30410   0.55290   1.000
    Zr523   Zr   0.09390   0.19590   0.55290   1.000
    Zr524   Zr   0.65610   0.94590   0.80290   1.000
    Zr525   Zr   0.34390   0.05410   0.80290   1.000
    Zr526   Zr   0.90610   0.30410   0.05290   1.000
    Zr527   Zr   0.59390   0.19590   0.05290   1.000
    Zr528   Zr   0.96898   0.66010   0.52340   1.000
    Zr529   Zr   0.28102   0.91010   0.77340   1.000
    Zr530   Zr   0.21898   0.58990   0.77340   1.000
    Zr531   Zr   0.53102   0.33990   0.02340   1.000
    Zr532   Zr   0.46898   0.66010   0.02340   1.000
    Zr533   Zr   0.78102   0.91010   0.27340   1.000
    Zr534   Zr   0.71898   0.58990   0.27340   1.000
    Zr535   Zr   0.03102   0.83990   0.02340   1.000
    Zr536   Zr   0.96898   0.16010   0.02340   1.000
    Zr537   Zr   0.28102   0.41010   0.27340   1.000
    Zr538   Zr   0.21898   0.08990   0.27340   1.000
    Zr539   Zr   0.53102   0.83990   0.52340   1.000
    Zr540   Zr   0.46898   0.16010   0.52340   1.000
    Zr541   Zr   0.78102   0.41010   0.77340   1.000
    Zr542   Zr   0.71898   0.08990   0.77340   1.000
    Zr543   Zr   0.15470   0.96400   0.80120   1.000
    Zr544   Zr   0.09530   0.21400   0.05120   1.000
    Zr545   Zr   0.40470   0.28600   0.05120   1.000
    Zr546   Zr   0.34530   0.03600   0.30120   1.000
    Zr547   Zr   0.65470   0.96400   0.30120   1.000
    Zr548   Zr   0.59530   0.21400   0.55120   1.000
    Zr549   Zr   0.90470   0.28600   0.55120   1.000
    Zr550   Zr   0.84530   0.53600   0.30120   1.000
    Zr551   Zr   0.15470   0.46400   0.30120   1.000
    Zr552   Zr   0.09530   0.71400   0.55120   1.000
    Zr553   Zr   0.40470   0.78600   0.55120   1.000
    Zr554   Zr   0.34530   0.53600   0.80120   1.000
    Zr555   Zr   0.65470   0.46400   0.80120   1.000
    Zr556   Zr   0.59530   0.71400   0.05120   1.000
    Zr557   Zr   0.90470   0.78600   0.05120   1.000
    Zr558   Zr   0.06310   0.87880   0.56510   1.000
    Zr559   Zr   0.18690   0.12880   0.81510   1.000
    Zr560   Zr   0.31310   0.37120   0.81510   1.000
    Zr561   Zr   0.43690   0.12120   0.06510   1.000
    Zr562   Zr   0.56310   0.87880   0.06510   1.000
    Zr563   Zr   0.68690   0.12880   0.31510   1.000
    Zr564   Zr   0.81310   0.37120   0.31510   1.000
    Zr565   Zr   0.93690   0.62120   0.06510   1.000
    Zr566   Zr   0.06310   0.37880   0.06510   1.000
    Zr567   Zr   0.18690   0.62880   0.31510   1.000
    Zr568   Zr   0.31310   0.87120   0.31510   1.000
    Zr569   Zr   0.43690   0.62120   0.56510   1.000
    Zr570   Zr   0.56310   0.37880   0.56510   1.000
    Zr571   Zr   0.68690   0.62880   0.81510   1.000
    Zr572   Zr   0.81310   0.87120   0.81510   1.000
    Zr573   Zr   0.06170   0.85920   0.72040   1.000
    Zr574   Zr   0.18830   0.10920   0.97040   1.000
    Zr575   Zr   0.31170   0.39080   0.97040   1.000
    Zr576   Zr   0.43830   0.14080   0.22040   1.000
    Zr577   Zr   0.56170   0.85920   0.22040   1.000
    Zr578   Zr   0.68830   0.10920   0.47040   1.000
    Zr579   Zr   0.81170   0.39080   0.47040   1.000
    Zr580   Zr   0.93830   0.64080   0.22040   1.000
    Zr581   Zr   0.06170   0.35920   0.22040   1.000
    Zr582   Zr   0.18830   0.60920   0.47040   1.000
    Zr583   Zr   0.31170   0.89080   0.47040   1.000
    Zr584   Zr   0.43830   0.64080   0.72040   1.000
    Zr585   Zr   0.56170   0.35920   0.72040   1.000
    Zr586   Zr   0.68830   0.60920   0.97040   1.000
    Zr587   Zr   0.81170   0.89080   0.97040   1.000
    Zr588   Zr   0.84470   0.55540   0.44850   1.000
    Zr589   Zr   0.40530   0.80540   0.69850   1.000
    Zr590   Zr   0.09470   0.69460   0.69850   1.000
    Zr591   Zr   0.65530   0.44460   0.94850   1.000
    Zr592   Zr   0.34470   0.55540   0.94850   1.000
    Zr593   Zr   0.90530   0.80540   0.19850   1.000
    Zr594   Zr   0.59470   0.69460   0.19850   1.000
    Zr595   Zr   0.15530   0.94460   0.94850   1.000
    Zr596   Zr   0.84470   0.05540   0.94850   1.000
    Zr597   Zr   0.40530   0.30540   0.19850   1.000
    Zr598   Zr   0.09470   0.19460   0.19850   1.000
    Zr599   Zr   0.65530   0.94460   0.44850   1.000
    Zr600   Zr   0.34470   0.05540   0.44850   1.000
    Zr601   Zr   0.90530   0.30540   0.69850   1.000
    Zr602   Zr   0.59470   0.19460   0.69850   1.000
    Zr603   Zr   0.15640   0.96540   0.46570   1.000
    Zr604   Zr   0.09360   0.21540   0.71570   1.000
    Zr605   Zr   0.40640   0.28460   0.71570   1.000
    Zr606   Zr   0.34360   0.03460   0.96570   1.000
    Zr607   Zr   0.65640   0.96540   0.96570   1.000
    Zr608   Zr   0.59360   0.21540   0.21570   1.000
    Zr609   Zr   0.90640   0.28460   0.21570   1.000
    Zr610   Zr   0.84360   0.53460   0.96570   1.000
    Zr611   Zr   0.15640   0.46540   0.96570   1.000
    Zr612   Zr   0.09360   0.71540   0.21570   1.000
    Zr613   Zr   0.40640   0.78460   0.21570   1.000
    Zr614   Zr   0.34360   0.53460   0.46570   1.000
    Zr615   Zr   0.65640   0.46540   0.46570   1.000
    Zr616   Zr   0.59360   0.71540   0.71570   1.000
    Zr617   Zr   0.90640   0.78460   0.71570   1.000
    Zr618   Zr   0.99880   0.77880   0.47170   1.000
    Zr619   Zr   0.25120   0.02880   0.72170   1.000
    Zr620   Zr   0.24880   0.47120   0.72170   1.000
    Zr621   Zr   0.50120   0.22120   0.97170   1.000
    Zr622   Zr   0.49880   0.77880   0.97170   1.000
    Zr623   Zr   0.75120   0.02880   0.22170   1.000
    Zr624   Zr   0.74880   0.47120   0.22170   1.000
    Zr625   Zr   0.00120   0.72120   0.97170   1.000
    Zr626   Zr   0.99880   0.27880   0.97170   1.000
    Zr627   Zr   0.25120   0.52880   0.22170   1.000
    Zr628   Zr   0.24880   0.97120   0.22170   1.000
    Zr629   Zr   0.50120   0.72120   0.47170   1.000
    Zr630   Zr   0.49880   0.27880   0.47170   1.000
    Zr631   Zr   0.75120   0.52880   0.72170   1.000
    Zr632   Zr   0.74880   0.97120   0.72170   1.000
    Zr633   Zr   0.97460   0.73520   0.68120   1.000
    Zr634   Zr   0.27540   0.98520   0.93120   1.000
    Zr635   Zr   0.22460   0.51480   0.93120   1.000
    Zr636   Zr   0.52540   0.26480   0.18120   1.000
    Zr637   Zr   0.47460   0.73520   0.18120   1.000
    Zr638   Zr   0.77540   0.98520   0.43120   1.000
    Zr639   Zr   0.72460   0.51480   0.43120   1.000
    Zr640   Zr   0.02540   0.76480   0.18120   1.000
    Zr641   Zr   0.97460   0.23520   0.18120   1.000
    Zr642   Zr   0.27540   0.48520   0.43120   1.000
    Zr643   Zr   0.22460   0.01480   0.43120   1.000
    Zr644   Zr   0.52540   0.76480   0.68120   1.000
    Zr645   Zr   0.47460   0.23520   0.68120   1.000
    Zr646   Zr   0.77540   0.48520   0.93120   1.000
    Zr647   Zr   0.72460   0.01480   0.93120   1.000
    Zr648   Zr   0.97492   0.74990   0.57660   1.000
    Zr649   Zr   0.27508   0.99990   0.82660   1.000
    Zr650   Zr   0.22492   0.50010   0.82660   1.000
    Zr651   Zr   0.52508   0.25010   0.07660   1.000
    Zr652   Zr   0.47492   0.74990   0.07660   1.000
    Zr653   Zr   0.77508   0.99990   0.32660   1.000
    Zr654   Zr   0.72492   0.50010   0.32660   1.000
    Zr655   Zr   0.02508   0.75010   0.07660   1.000
    Zr656   Zr   0.97492   0.24990   0.07660   1.000
    Zr657   Zr   0.27508   0.49990   0.32660   1.000
    Zr658   Zr   0.22492   0.00010   0.32660   1.000
    Zr659   Zr   0.52508   0.75010   0.57660   1.000
    Zr660   Zr   0.47492   0.24990   0.57660   1.000
    Zr661   Zr   0.77508   0.49990   0.82660   1.000
    Zr662   Zr   0.72492   0.00010   0.82660   1.000
    Zr663   Zr   0.95263   0.81450   0.63710   1.000
    Zr664   Zr   0.29737   0.06450   0.88710   1.000
    Zr665   Zr   0.20263   0.43550   0.88710   1.000
    Zr666   Zr   0.54737   0.18550   0.13710   1.000
    Zr667   Zr   0.45263   0.81450   0.13710   1.000
    Zr668   Zr   0.79737   0.06450   0.38710   1.000
    Zr669   Zr   0.70263   0.43550   0.38710   1.000
    Zr670   Zr   0.04737   0.68550   0.13710   1.000
    Zr671   Zr   0.95263   0.31450   0.13710   1.000
    Zr672   Zr   0.29737   0.56450   0.38710   1.000
    Zr673   Zr   0.20263   0.93550   0.38710   1.000
    Zr674   Zr   0.54737   0.68550   0.63710   1.000
    Zr675   Zr   0.45263   0.31450   0.63710   1.000
    Zr676   Zr   0.79737   0.56450   0.88710   1.000
    Zr677   Zr   0.70263   0.93550   0.88710   1.000
    Zr678   Zr   0.93270   0.83830   0.64000   1.000
    Zr679   Zr   0.31730   0.08830   0.89000   1.000
    Zr680   Zr   0.18270   0.41170   0.89000   1.000
    Zr681   Zr   0.56730   0.16170   0.14000   1.000
    Zr682   Zr   0.43270   0.83830   0.14000   1.000
    Zr683   Zr   0.81730   0.08830   0.39000   1.000
    Zr684   Zr   0.68270   0.41170   0.39000   1.000
    Zr685   Zr   0.06730   0.66170   0.14000   1.000
    Zr686   Zr   0.93270   0.33830   0.14000   1.000
    Zr687   Zr   0.31730   0.58830   0.39000   1.000
    Zr688   Zr   0.18270   0.91170   0.39000   1.000
    Zr689   Zr   0.56730   0.66170   0.64000   1.000
    Zr690   Zr   0.43270   0.33830   0.64000   1.000
    Zr691   Zr   0.81730   0.58830   0.89000   1.000
    Zr692   Zr   0.68270   0.91170   0.89000   1.000
    Zr693   Zr   0.03427   0.77930   0.56150   1.000
    Zr694   Zr   0.21573   0.02930   0.81150   1.000
    Zr695   Zr   0.28427   0.47070   0.81150   1.000
    Zr696   Zr   0.46573   0.22070   0.06150   1.000
    Zr697   Zr   0.53427   0.77930   0.06150   1.000
    Zr698   Zr   0.71573   0.02930   0.31150   1.000
    Zr699   Zr   0.78427   0.47070   0.31150   1.000
    Zr700   Zr   0.96573   0.72070   0.06150   1.000
    Zr701   Zr   0.03427   0.27930   0.06150   1.000
    Zr702   Zr   0.21573   0.52930   0.31150   1.000
    Zr703   Zr   0.28427   0.97070   0.31150   1.000
    Zr704   Zr   0.46573   0.72070   0.56150   1.000
    Zr705   Zr   0.53427   0.27930   0.56150   1.000
    Zr706   Zr   0.71573   0.52930   0.81150   1.000
    Zr707   Zr   0.78427   0.97070   0.81150   1.000
    Zr708   Zr   0.04860   0.78970   0.53340   1.000
    Zr709   Zr   0.20140   0.03970   0.78340   1.000
    Zr710   Zr   0.29860   0.46030   0.78340   1.000
    Zr711   Zr   0.45140   0.21030   0.03340   1.000
    Zr712   Zr   0.54860   0.78970   0.03340   1.000
    Zr713   Zr   0.70140   0.03970   0.28340   1.000
    Zr714   Zr   0.79860   0.46030   0.28340   1.000
    Zr715   Zr   0.95140   0.71030   0.03340   1.000
    Zr716   Zr   0.04860   0.28970   0.03340   1.000
    Zr717   Zr   0.20140   0.53970   0.28340   1.000
    Zr718   Zr   0.29860   0.96030   0.28340   1.000
    Zr719   Zr   0.45140   0.71030   0.53340   1.000
    Zr720   Zr   0.54860   0.28970   0.53340   1.000
    Zr721   Zr   0.70140   0.53970   0.78340   1.000
    Zr722   Zr   0.79860   0.96030   0.78340   1.000
    Zr723   Zr   0.93800   0.65450   0.53430   1.000
    Zr724   Zr   0.31200   0.90450   0.78430   1.000
    Zr725   Zr   0.18800   0.59550   0.78430   1.000
    Zr726   Zr   0.56200   0.34550   0.03430   1.000
    Zr727   Zr   0.43800   0.65450   0.03430   1.000
    Zr728   Zr   0.81200   0.90450   0.28430   1.000
    Zr729   Zr   0.68800   0.59550   0.28430   1.000
    Zr730   Zr   0.06200   0.84550   0.03430   1.000
    Zr731   Zr   0.93800   0.15450   0.03430   1.000
    Zr732   Zr   0.31200   0.40450   0.28430   1.000
    Zr733   Zr   0.18800   0.09550   0.28430   1.000
    Zr734   Zr   0.56200   0.84550   0.53430   1.000
    Zr735   Zr   0.43800   0.15450   0.53430   1.000
    Zr736   Zr   0.81200   0.40450   0.78430   1.000
    Zr737   Zr   0.68800   0.09550   0.78430   1.000
    Zr738   Zr   0.03156   0.88120   0.55800   1.000
    Zr739   Zr   0.21844   0.13120   0.80800   1.000
    Zr740   Zr   0.28156   0.36880   0.80800   1.000
    Zr741   Zr   0.46844   0.11880   0.05800   1.000
    Zr742   Zr   0.53156   0.88120   0.05800   1.000
    Zr743   Zr   0.71844   0.13120   0.30800   1.000
    Zr744   Zr   0.78156   0.36880   0.30800   1.000
    Zr745   Zr   0.96844   0.61880   0.05800   1.000
    Zr746   Zr   0.03156   0.38120   0.05800   1.000
    Zr747   Zr   0.21844   0.63120   0.30800   1.000
    Zr748   Zr   0.28156   0.86880   0.30800   1.000
    Zr749   Zr   0.46844   0.61880   0.55800   1.000
    Zr750   Zr   0.53156   0.38120   0.55800   1.000
    Zr751   Zr   0.71844   0.63120   0.80800   1.000
    Zr752   Zr   0.78156   0.86880   0.80800   1.000
    Zr753   Zr   0.00010   0.77260   0.28830   1.000
    Zr754   Zr   0.24990   0.02260   0.53830   1.000
    Zr755   Zr   0.25010   0.47740   0.53830   1.000
    Zr756   Zr   0.49990   0.22740   0.78830   1.000
    Zr757   Zr   0.50010   0.77260   0.78830   1.000
    Zr758   Zr   0.74990   0.02260   0.03830   1.000
    Zr759   Zr   0.75010   0.47740   0.03830   1.000
    Zr760   Zr   0.99990   0.72740   0.78830   1.000
    Zr761   Zr   0.00010   0.27260   0.78830   1.000
    Zr762   Zr   0.24990   0.52260   0.03830   1.000
    Zr763   Zr   0.25010   0.97740   0.03830   1.000
    Zr764   Zr   0.49990   0.72740   0.28830   1.000
    Zr765   Zr   0.50010   0.27260   0.28830   1.000
    Zr766   Zr   0.74990   0.52260   0.53830   1.000
    Zr767   Zr   0.75010   0.97740   0.53830   1.000
    O768    O    0.75455   0.04140   0.02490   1.000
    O769    O    0.76128   0.06454   0.97284   1.000
    O770    O    0.74546   0.45860   0.02490   1.000
    O771    O    0.73872   0.43546   0.97284   1.000
    O772    O    0.25455   0.54140   0.02490   1.000
    O773    O    0.26128   0.56454   0.97284   1.000
    O774    O    0.24546   0.95860   0.02490   1.000
    O775    O    0.23873   0.93546   0.97284   1.000
    O776    O    0.95349   0.15730   0.02885   1.000
    O777    O    0.99104   0.17994   0.04115   1.000
    O778    O    0.04651   0.84270   0.02885   1.000
    O779    O    0.00896   0.82006   0.04115   1.000
    O780    O    0.45349   0.65730   0.02885   1.000
    O781    O    0.49104   0.67994   0.04115   1.000
    O782    O    0.54651   0.34270   0.02885   1.000
    O783    O    0.50896   0.32006   0.04115   1.000
    O784    O    0.25420   0.00005   0.03155   1.000
    O785    O    0.24580   0.49995   0.03155   1.000
    O786    O    0.75420   0.50005   0.03155   1.000
    O787    O    0.74580   0.99995   0.03155   1.000
    O788    O    0.54144   0.78450   0.04745   1.000
    O789    O    0.04143   0.28450   0.04745   1.000
    O790    O    0.45857   0.21550   0.04745   1.000
    O791    O    0.95856   0.71550   0.04745   1.000
    O792    O    0.08158   0.20485   0.04275   1.000
    O793    O    0.91842   0.79515   0.04275   1.000
    O794    O    0.58158   0.70485   0.04275   1.000
    O795    O    0.41842   0.29515   0.04275   1.000
    O796    O    0.56975   0.33570   0.05220   1.000
    O797    O    0.43025   0.66430   0.05220   1.000
    O798    O    0.06975   0.83570   0.05220   1.000
    O799    O    0.93025   0.16430   0.05220   1.000
    O800    O    0.41965   0.81565   0.04785   1.000
    O801    O    0.91965   0.31565   0.04785   1.000
    O802    O    0.58035   0.18435   0.04785   1.000
    O803    O    0.08035   0.68435   0.04785   1.000
    O804    O    0.09679   0.23125   0.06695   1.000
    O805    O    0.40321   0.26875   0.06695   1.000
    O806    O    0.59680   0.73125   0.06695   1.000
    O807    O    0.90321   0.76875   0.06695   1.000
    O808    O    0.59567   0.21340   0.06865   1.000
    O809    O    0.90434   0.28660   0.06865   1.000
    O810    O    0.09566   0.71340   0.06865   1.000
    O811    O    0.40434   0.78660   0.06865   1.000
    O812    O    0.04733   0.38000   0.06155   1.000
    O813    O    0.45267   0.12000   0.06155   1.000
    O814    O    0.54733   0.88000   0.06155   1.000
    O815    O    0.95267   0.62000   0.06155   1.000
    O816    O    0.02369   0.23954   0.06020   1.000
    O817    O    0.99401   0.22484   0.06775   1.000
    O818    O    0.97631   0.76046   0.06020   1.000
    O819    O    0.00599   0.77516   0.06775   1.000
    O820    O    0.52369   0.73954   0.06020   1.000
    O821    O    0.49401   0.72484   0.06775   1.000
    O822    O    0.47631   0.26046   0.06020   1.000
    O823    O    0.50599   0.27516   0.06775   1.000
    O824    O    0.07086   0.36410   0.07940   1.000
    O825    O    0.92914   0.63590   0.07940   1.000
    O826    O    0.57086   0.86410   0.07940   1.000
    O827    O    0.42914   0.13590   0.07940   1.000
    O828    O    0.56858   0.29933   0.09839   1.000
    O829    O    0.43143   0.70067   0.09839   1.000
    O830    O    0.06858   0.79933   0.09839   1.000
    O831    O    0.93143   0.20067   0.09839   1.000
    O832    O    0.02985   0.67920   0.10599   1.000
    O833    O    0.99871   0.67565   0.10664   1.000
    O834    O    0.01048   0.67710   0.03574   1.000
    O835    O    0.52985   0.17920   0.10599   1.000
    O836    O    0.49871   0.17565   0.10664   1.000
    O837    O    0.51049   0.17710   0.03574   1.000
    O838    O    0.47015   0.82080   0.10599   1.000
    O839    O    0.50130   0.82435   0.10664   1.000
    O840    O    0.48951   0.82290   0.03574   1.000
    O841    O    0.97016   0.32080   0.10599   1.000
    O842    O    0.00130   0.32435   0.10664   1.000
    O843    O    0.98952   0.32290   0.03574   1.000
    O844    O    0.95764   0.23857   0.10164   1.000
    O845    O    0.04236   0.76143   0.10164   1.000
    O846    O    0.45764   0.73857   0.10164   1.000
    O847    O    0.54237   0.26143   0.10164   1.000
    O848    O    0.92073   0.73514   0.10797   1.000
    O849    O    0.57928   0.76486   0.10797   1.000
    O850    O    0.42073   0.23515   0.10797   1.000
    O851    O    0.07927   0.26486   0.10797   1.000
    O852    O    0.42146   0.74817   0.10554   1.000
    O853    O    0.57854   0.25183   0.10554   1.000
    O854    O    0.92146   0.24817   0.10554   1.000
    O855    O    0.07854   0.75183   0.10554   1.000
    O856    O    0.43056   0.18470   0.11347   1.000
    O857    O    0.56944   0.81531   0.11347   1.000
    O858    O    0.93056   0.68469   0.11347   1.000
    O859    O    0.06944   0.31531   0.11347   1.000
    O860    O    0.02145   0.85270   0.11640   1.000
    O861    O    0.47856   0.64730   0.11640   1.000
    O862    O    0.52145   0.35270   0.11640   1.000
    O863    O    0.97856   0.14730   0.11640   1.000
    O864    O    0.49794   0.67326   0.15144   1.000
    O865    O    0.00207   0.82674   0.15144   1.000
    O866    O    0.50206   0.32674   0.15144   1.000
    O867    O    0.99794   0.17326   0.15144   1.000
    O868    O    0.54904   0.74551   0.12872   1.000
    O869    O    0.52559   0.69546   0.15419   1.000
    O870    O    0.45096   0.25450   0.12872   1.000
    O871    O    0.47441   0.30454   0.15419   1.000
    O872    O    0.95096   0.75450   0.12872   1.000
    O873    O    0.97441   0.80454   0.15419   1.000
    O874    O    0.04904   0.24551   0.12872   1.000
    O875    O    0.02559   0.19546   0.15419   1.000
    O876    O    0.93093   0.19412   0.14739   1.000
    O877    O    0.92159   0.24167   0.15309   1.000
    O878    O    0.95748   0.23122   0.15394   1.000
    O879    O    0.06907   0.80588   0.14739   1.000
    O880    O    0.07841   0.75833   0.15309   1.000
    O881    O    0.04252   0.76878   0.15394   1.000
    O882    O    0.43093   0.69412   0.14739   1.000
    O883    O    0.42159   0.74167   0.15309   1.000
    O884    O    0.45747   0.73122   0.15394   1.000
    O885    O    0.56907   0.30588   0.14739   1.000
    O886    O    0.57842   0.25833   0.15309   1.000
    O887    O    0.54253   0.26878   0.15394   1.000
    O888    O    0.03758   0.30140   0.13582   1.000
    O889    O    0.07904   0.25855   0.15417   1.000
    O890    O    0.06891   0.30905   0.16037   1.000
    O891    O    0.96242   0.69859   0.13582   1.000
    O892    O    0.92096   0.74145   0.15417   1.000
    O893    O    0.93109   0.69095   0.16037   1.000
    O894    O    0.46242   0.19860   0.13582   1.000
    O895    O    0.42096   0.24145   0.15417   1.000
    O896    O    0.43109   0.19095   0.16037   1.000
    O897    O    0.53759   0.80141   0.13582   1.000
    O898    O    0.57904   0.75855   0.15417   1.000
    O899    O    0.56891   0.80905   0.16037   1.000
    O900    O    0.94266   0.32640   0.13855   1.000
    O901    O    0.44267   0.82640   0.13855   1.000
    O902    O    0.05734   0.67360   0.13855   1.000
    O903    O    0.55734   0.17360   0.13855   1.000
    O904    O    0.57090   0.35175   0.18450   1.000
    O905    O    0.42911   0.64825   0.18450   1.000
    O906    O    0.07090   0.85175   0.18450   1.000
    O907    O    0.92911   0.14825   0.18450   1.000
    O908    O    0.09626   0.21525   0.18680   1.000
    O909    O    0.40374   0.28475   0.18680   1.000
    O910    O    0.90374   0.78475   0.18680   1.000
    O911    O    0.59626   0.71525   0.18680   1.000
    O912    O    0.59539   0.22965   0.19760   1.000
    O913    O    0.40461   0.77035   0.19760   1.000
    O914    O    0.09539   0.72965   0.19760   1.000
    O915    O    0.90461   0.27035   0.19760   1.000
    O916    O    0.98104   0.27194   0.19111   1.000
    O917    O    0.51897   0.22806   0.19111   1.000
    O918    O    0.48103   0.77195   0.19111   1.000
    O919    O    0.01897   0.72806   0.19111   1.000
    O920    O    0.52372   0.72001   0.19299   1.000
    O921    O    0.51128   0.68546   0.22284   1.000
    O922    O    0.47629   0.27999   0.19299   1.000
    O923    O    0.48873   0.31454   0.22284   1.000
    O924    O    0.97628   0.77999   0.19299   1.000
    O925    O    0.98872   0.81454   0.22284   1.000
    O926    O    0.02372   0.22001   0.19299   1.000
    O927    O    0.01128   0.18546   0.22284   1.000
    O928    O    0.43037   0.15195   0.20395   1.000
    O929    O    0.56963   0.84805   0.20395   1.000
    O930    O    0.93037   0.65195   0.20395   1.000
    O931    O    0.06963   0.34805   0.20395   1.000
    O932    O    0.58116   0.68215   0.20295   1.000
    O933    O    0.08116   0.18215   0.20295   1.000
    O934    O    0.41884   0.31785   0.20295   1.000
    O935    O    0.91884   0.81785   0.20295   1.000
    O936    O    0.54781   0.36515   0.20545   1.000
    O937    O    0.45219   0.63485   0.20545   1.000
    O938    O    0.95219   0.13485   0.20545   1.000
    O939    O    0.04781   0.86515   0.20545   1.000
    O940    O    0.50902   0.83235   0.21596   1.000
    O941    O    0.00901   0.33235   0.21596   1.000
    O942    O    0.99099   0.66765   0.21596   1.000
    O943    O    0.49099   0.16765   0.21596   1.000
    O944    O    0.45881   0.24005   0.21660   1.000
    O945    O    0.54119   0.75995   0.21660   1.000
    O946    O    0.95882   0.74005   0.21660   1.000
    O947    O    0.04119   0.25995   0.21660   1.000
    O948    O    0.92002   0.29375   0.22400   1.000
    O949    O    0.42001   0.79375   0.22400   1.000
    O950    O    0.07998   0.70625   0.22400   1.000
    O951    O    0.57999   0.20625   0.22400   1.000
    O952    O    0.54613   0.85760   0.22565   1.000
    O953    O    0.04613   0.35760   0.22565   1.000
    O954    O    0.45387   0.14240   0.22565   1.000
    O955    O    0.95387   0.64240   0.22565   1.000
    O956    O    0.25320   0.99400   0.22820   1.000
    O957    O    0.24508   0.95125   0.23415   1.000
    O958    O    0.75320   0.49400   0.22820   1.000
    O959    O    0.74508   0.45125   0.23415   1.000
    O960    O    0.74680   0.00600   0.22820   1.000
    O961    O    0.75493   0.04875   0.23415   1.000
    O962    O    0.24680   0.50600   0.22820   1.000
    O963    O    0.25493   0.54875   0.23415   1.000
    O964    O    0.73952   0.42710   0.28574   1.000
    O965    O    0.26049   0.57290   0.28574   1.000
    O966    O    0.23952   0.92710   0.28574   1.000
    O967    O    0.76048   0.07290   0.28574   1.000
    O968    O    0.00454   0.20860   0.27490   1.000
    O969    O    0.49545   0.29140   0.27490   1.000
    O970    O    0.50455   0.70860   0.27490   1.000
    O971    O    0.99546   0.79140   0.27490   1.000
    O972    O    0.29651   0.40730   0.27885   1.000
    O973    O    0.25896   0.42994   0.29115   1.000
    O974    O    0.70349   0.59270   0.27885   1.000
    O975    O    0.74104   0.57006   0.29115   1.000
    O976    O    0.79651   0.90730   0.27885   1.000
    O977    O    0.75896   0.92994   0.29115   1.000
    O978    O    0.20349   0.09270   0.27885   1.000
    O979    O    0.24104   0.07006   0.29115   1.000
    O980    O    0.99580   0.25005   0.28155   1.000
    O981    O    0.00420   0.74995   0.28155   1.000
    O982    O    0.49580   0.75005   0.28155   1.000
    O983    O    0.50420   0.24995   0.28155   1.000
    O984    O    0.70857   0.03450   0.29745   1.000
    O985    O    0.79143   0.46550   0.29745   1.000
    O986    O    0.20857   0.53450   0.29745   1.000
    O987    O    0.29144   0.96550   0.29745   1.000
    O988    O    0.31975   0.41430   0.30220   1.000
    O989    O    0.81975   0.91430   0.30220   1.000
    O990    O    0.68025   0.58570   0.30220   1.000
    O991    O    0.18025   0.08570   0.30220   1.000
    O992    O    0.33158   0.04515   0.29275   1.000
    O993    O    0.66842   0.95485   0.29275   1.000
    O994    O    0.83158   0.54515   0.29275   1.000
    O995    O    0.16842   0.45485   0.29275   1.000
    O996    O    0.33035   0.56565   0.29785   1.000
    O997    O    0.66965   0.43435   0.29785   1.000
    O998    O    0.16965   0.93435   0.29785   1.000
    O999    O    0.83035   0.06565   0.29785   1.000
    O1000   O    0.84680   0.51875   0.31695   1.000
    O1001   O    0.65321   0.98125   0.31695   1.000
    O1002   O    0.34680   0.01875   0.31695   1.000
    O1003   O    0.15321   0.48125   0.31695   1.000
    O1004   O    0.65434   0.46340   0.31865   1.000
    O1005   O    0.15434   0.96340   0.31865   1.000
    O1006   O    0.34567   0.53660   0.31865   1.000
    O1007   O    0.84566   0.03660   0.31865   1.000
    O1008   O    0.20267   0.63000   0.31155   1.000
    O1009   O    0.29733   0.87000   0.31155   1.000
    O1010   O    0.79733   0.37000   0.31155   1.000
    O1011   O    0.70267   0.13000   0.31155   1.000
    O1012   O    0.72631   0.98954   0.31020   1.000
    O1013   O    0.75599   0.97484   0.31775   1.000
    O1014   O    0.77369   0.51046   0.31020   1.000
    O1015   O    0.74401   0.52516   0.31775   1.000
    O1016   O    0.22631   0.48954   0.31020   1.000
    O1017   O    0.25599   0.47484   0.31775   1.000
    O1018   O    0.27369   0.01046   0.31020   1.000
    O1019   O    0.24401   0.02516   0.31775   1.000
    O1020   O    0.82086   0.38590   0.32940   1.000
    O1021   O    0.32086   0.88590   0.32940   1.000
    O1022   O    0.17914   0.61410   0.32940   1.000
    O1023   O    0.67914   0.11410   0.32940   1.000
    O1024   O    0.18143   0.04933   0.34839   1.000
    O1025   O    0.31858   0.45067   0.34839   1.000
    O1026   O    0.68143   0.54933   0.34839   1.000
    O1027   O    0.81858   0.95067   0.34839   1.000
    O1028   O    0.27985   0.57080   0.35599   1.000
    O1029   O    0.24871   0.57435   0.35664   1.000
    O1030   O    0.22015   0.92920   0.35599   1.000
    O1031   O    0.25129   0.92565   0.35664   1.000
    O1032   O    0.72015   0.42920   0.35599   1.000
    O1033   O    0.75129   0.42565   0.35664   1.000
    O1034   O    0.77985   0.07080   0.35599   1.000
    O1035   O    0.74871   0.07435   0.35664   1.000
    O1036   O    0.20764   0.01143   0.35164   1.000
    O1037   O    0.79236   0.98857   0.35164   1.000
    O1038   O    0.70764   0.51143   0.35164   1.000
    O1039   O    0.29236   0.48857   0.35164   1.000
    O1040   O    0.82927   0.48515   0.35797   1.000
    O1041   O    0.17073   0.51485   0.35797   1.000
    O1042   O    0.67073   0.01486   0.35797   1.000
    O1043   O    0.32927   0.98515   0.35797   1.000
    O1044   O    0.67146   0.50183   0.35554   1.000
    O1045   O    0.32854   0.49817   0.35554   1.000
    O1046   O    0.17146   0.00183   0.35554   1.000
    O1047   O    0.82854   0.99817   0.35554   1.000
    O1048   O    0.31944   0.93470   0.36347   1.000
    O1049   O    0.18056   0.56530   0.36347   1.000
    O1050   O    0.68056   0.06530   0.36347   1.000
    O1051   O    0.81944   0.43470   0.36347   1.000
    O1052   O    0.77145   0.89730   0.36640   1.000
    O1053   O    0.27144   0.39730   0.36640   1.000
    O1054   O    0.22855   0.10270   0.36640   1.000
    O1055   O    0.72856   0.60270   0.36640   1.000
    O1056   O    0.74794   0.57674   0.40144   1.000
    O1057   O    0.75206   0.92326   0.40144   1.000
    O1058   O    0.24794   0.07674   0.40144   1.000
    O1059   O    0.25206   0.42326   0.40144   1.000
    O1060   O    0.20096   0.49551   0.37872   1.000
    O1061   O    0.22441   0.44546   0.40419   1.000
    O1062   O    0.79904   0.50450   0.37872   1.000
    O1063   O    0.77559   0.55454   0.40419   1.000
    O1064   O    0.70096   0.99551   0.37872   1.000
    O1065   O    0.72441   0.94546   0.40419   1.000
    O1066   O    0.29904   0.00450   0.37872   1.000
    O1067   O    0.27559   0.05454   0.40419   1.000
    O1068   O    0.68093   0.55588   0.39739   1.000
    O1069   O    0.67159   0.50833   0.40309   1.000
    O1070   O    0.70748   0.51878   0.40394   1.000
    O1071   O    0.31907   0.44412   0.39739   1.000
    O1072   O    0.32841   0.49167   0.40309   1.000
    O1073   O    0.29253   0.48122   0.40394   1.000
    O1074   O    0.81907   0.94412   0.39739   1.000
    O1075   O    0.82842   0.99167   0.40309   1.000
    O1076   O    0.79253   0.98122   0.40394   1.000
    O1077   O    0.18093   0.05588   0.39739   1.000
    O1078   O    0.17159   0.00833   0.40309   1.000
    O1079   O    0.20747   0.01878   0.40394   1.000
    O1080   O    0.28759   0.94859   0.38582   1.000
    O1081   O    0.32904   0.99145   0.40417   1.000
    O1082   O    0.31891   0.94095   0.41037   1.000
    O1083   O    0.21241   0.55141   0.38582   1.000
    O1084   O    0.17096   0.50856   0.40417   1.000
    O1085   O    0.18109   0.55905   0.41037   1.000
    O1086   O    0.78758   0.44860   0.38582   1.000
    O1087   O    0.82904   0.49145   0.40417   1.000
    O1088   O    0.81891   0.44095   0.41037   1.000
    O1089   O    0.71242   0.05140   0.38582   1.000
    O1090   O    0.67096   0.00855   0.40417   1.000
    O1091   O    0.68109   0.05905   0.41037   1.000
    O1092   O    0.19267   0.92360   0.38855   1.000
    O1093   O    0.30734   0.57640   0.38855   1.000
    O1094   O    0.69267   0.42360   0.38855   1.000
    O1095   O    0.80734   0.07640   0.38855   1.000
    O1096   O    0.32089   0.39825   0.43450   1.000
    O1097   O    0.82090   0.89825   0.43450   1.000
    O1098   O    0.17910   0.10175   0.43450   1.000
    O1099   O    0.67911   0.60175   0.43450   1.000
    O1100   O    0.15374   0.46525   0.43680   1.000
    O1101   O    0.84626   0.53475   0.43680   1.000
    O1102   O    0.65374   0.96525   0.43680   1.000
    O1103   O    0.34626   0.03475   0.43680   1.000
    O1104   O    0.84539   0.02035   0.44760   1.000
    O1105   O    0.34539   0.52035   0.44760   1.000
    O1106   O    0.65461   0.47965   0.44760   1.000
    O1107   O    0.15461   0.97965   0.44760   1.000
    O1108   O    0.23104   0.97806   0.44111   1.000
    O1109   O    0.26897   0.52194   0.44111   1.000
    O1110   O    0.73104   0.47805   0.44111   1.000
    O1111   O    0.76897   0.02195   0.44111   1.000
    O1112   O    0.77372   0.52999   0.44299   1.000
    O1113   O    0.76128   0.56454   0.47284   1.000
    O1114   O    0.72628   0.97001   0.44299   1.000
    O1115   O    0.73872   0.93546   0.47284   1.000
    O1116   O    0.22628   0.47001   0.44299   1.000
    O1117   O    0.23872   0.43546   0.47284   1.000
    O1118   O    0.27372   0.02999   0.44299   1.000
    O1119   O    0.26128   0.06454   0.47284   1.000
    O1120   O    0.68037   0.09805   0.45395   1.000
    O1121   O    0.81963   0.40195   0.45395   1.000
    O1122   O    0.18037   0.59805   0.45395   1.000
    O1123   O    0.31963   0.90195   0.45395   1.000
    O1124   O    0.16884   0.43215   0.45295   1.000
    O1125   O    0.33116   0.06785   0.45295   1.000
    O1126   O    0.83116   0.56785   0.45295   1.000
    O1127   O    0.66884   0.93215   0.45295   1.000
    O1128   O    0.29781   0.38485   0.45545   1.000
    O1129   O    0.70219   0.61515   0.45545   1.000
    O1130   O    0.79781   0.88485   0.45545   1.000
    O1131   O    0.20219   0.11515   0.45545   1.000
    O1132   O    0.75902   0.41765   0.46596   1.000
    O1133   O    0.74099   0.08235   0.46596   1.000
    O1134   O    0.24099   0.58235   0.46596   1.000
    O1135   O    0.25901   0.91765   0.46596   1.000
    O1136   O    0.79119   0.49005   0.46660   1.000
    O1137   O    0.70881   0.00995   0.46660   1.000
    O1138   O    0.29119   0.99005   0.46660   1.000
    O1139   O    0.20881   0.50995   0.46660   1.000
    O1140   O    0.82998   0.04375   0.47400   1.000
    O1141   O    0.17001   0.95625   0.47400   1.000
    O1142   O    0.67002   0.45625   0.47400   1.000
    O1143   O    0.32998   0.54375   0.47400   1.000
    O1144   O    0.70387   0.10760   0.47565   1.000
    O1145   O    0.79613   0.39240   0.47565   1.000
    O1146   O    0.20387   0.60760   0.47565   1.000
    O1147   O    0.29613   0.89240   0.47565   1.000
    O1148   O    0.99680   0.24400   0.47820   1.000
    O1149   O    0.00493   0.20125   0.48415   1.000
    O1150   O    0.50320   0.25600   0.47820   1.000
    O1151   O    0.49508   0.29875   0.48415   1.000
    O1152   O    0.49680   0.74400   0.47820   1.000
    O1153   O    0.50493   0.70125   0.48415   1.000
    O1154   O    0.00320   0.75600   0.47820   1.000
    O1155   O    0.99508   0.79875   0.48415   1.000
    O1156   O    0.01049   0.17710   0.53574   1.000
    O1157   O    0.98952   0.82290   0.53574   1.000
    O1158   O    0.51049   0.67710   0.53574   1.000
    O1159   O    0.48952   0.32290   0.53574   1.000
    O1160   O    0.24545   0.45860   0.52490   1.000
    O1161   O    0.25455   0.04140   0.52490   1.000
    O1162   O    0.75455   0.54140   0.52490   1.000
    O1163   O    0.74546   0.95860   0.52490   1.000
    O1164   O    0.04651   0.34270   0.52885   1.000
    O1165   O    0.00896   0.32006   0.54115   1.000
    O1166   O    0.54651   0.84270   0.52885   1.000
    O1167   O    0.50896   0.82006   0.54115   1.000
    O1168   O    0.45349   0.15730   0.52885   1.000
    O1169   O    0.49104   0.17994   0.54115   1.000
    O1170   O    0.95349   0.65730   0.52885   1.000
    O1171   O    0.99104   0.67994   0.54115   1.000
    O1172   O    0.24580   0.99995   0.53155   1.000
    O1173   O    0.25420   0.50005   0.53155   1.000
    O1174   O    0.74580   0.49995   0.53155   1.000
    O1175   O    0.75420   0.00005   0.53155   1.000
    O1176   O    0.95857   0.21550   0.54745   1.000
    O1177   O    0.54144   0.28450   0.54745   1.000
    O1178   O    0.04143   0.78450   0.54745   1.000
    O1179   O    0.45856   0.71550   0.54745   1.000
    O1180   O    0.93025   0.66430   0.55220   1.000
    O1181   O    0.91842   0.29515   0.54275   1.000
    O1182   O    0.41842   0.79515   0.54275   1.000
    O1183   O    0.06975   0.33570   0.55220   1.000
    O1184   O    0.43025   0.16430   0.55220   1.000
    O1185   O    0.08158   0.70485   0.54275   1.000
    O1186   O    0.56975   0.83570   0.55220   1.000
    O1187   O    0.58158   0.20485   0.54275   1.000
    O1188   O    0.58035   0.68435   0.54785   1.000
    O1189   O    0.41965   0.31565   0.54785   1.000
    O1190   O    0.08035   0.18435   0.54785   1.000
    O1191   O    0.91965   0.81565   0.54785   1.000
    O1192   O    0.59680   0.23125   0.56695   1.000
    O1193   O    0.90321   0.26875   0.56695   1.000
    O1194   O    0.09679   0.73125   0.56695   1.000
    O1195   O    0.40321   0.76875   0.56695   1.000
    O1196   O    0.90434   0.78660   0.56865   1.000
    O1197   O    0.59567   0.71340   0.56865   1.000
    O1198   O    0.40434   0.28660   0.56865   1.000
    O1199   O    0.09566   0.21340   0.56865   1.000
    O1200   O    0.95267   0.12000   0.56155   1.000
    O1201   O    0.45267   0.62000   0.56155   1.000
    O1202   O    0.54733   0.38000   0.56155   1.000
    O1203   O    0.04733   0.88000   0.56155   1.000
    O1204   O    0.97632   0.26046   0.56019   1.000
    O1205   O    0.00599   0.27516   0.56775   1.000
    O1206   O    0.02369   0.73954   0.56020   1.000
    O1207   O    0.99401   0.72484   0.56775   1.000
    O1208   O    0.47631   0.76046   0.56020   1.000
    O1209   O    0.50599   0.77516   0.56775   1.000
    O1210   O    0.52369   0.23954   0.56020   1.000
    O1211   O    0.49401   0.22484   0.56775   1.000
    O1212   O    0.92914   0.13590   0.57940   1.000
    O1213   O    0.07086   0.86410   0.57940   1.000
    O1214   O    0.42914   0.63590   0.57940   1.000
    O1215   O    0.57086   0.36410   0.57940   1.000
    O1216   O    0.06857   0.29933   0.59839   1.000
    O1217   O    0.56858   0.79933   0.59839   1.000
    O1218   O    0.93143   0.70067   0.59839   1.000
    O1219   O    0.43143   0.20067   0.59839   1.000
    O1220   O    0.02985   0.17920   0.60599   1.000
    O1221   O    0.99871   0.17565   0.60664   1.000
    O1222   O    0.97016   0.82080   0.60599   1.000
    O1223   O    0.00130   0.82435   0.60664   1.000
    O1224   O    0.52985   0.67920   0.60599   1.000
    O1225   O    0.49871   0.67565   0.60664   1.000
    O1226   O    0.47016   0.32080   0.60599   1.000
    O1227   O    0.50130   0.32435   0.60664   1.000
    O1228   O    0.04236   0.26143   0.60164   1.000
    O1229   O    0.54237   0.76143   0.60164   1.000
    O1230   O    0.45764   0.23857   0.60164   1.000
    O1231   O    0.95764   0.73857   0.60164   1.000
    O1232   O    0.07928   0.76486   0.60797   1.000
    O1233   O    0.57928   0.26485   0.60797   1.000
    O1234   O    0.92073   0.23515   0.60797   1.000
    O1235   O    0.42073   0.73514   0.60797   1.000
    O1236   O    0.42146   0.24817   0.60554   1.000
    O1237   O    0.92146   0.74817   0.60554   1.000
    O1238   O    0.57854   0.75183   0.60554   1.000
    O1239   O    0.07854   0.25183   0.60554   1.000
    O1240   O    0.93056   0.18470   0.61347   1.000
    O1241   O    0.56944   0.31531   0.61347   1.000
    O1242   O    0.06944   0.81531   0.61347   1.000
    O1243   O    0.43056   0.68469   0.61347   1.000
    O1244   O    0.02144   0.35270   0.61640   1.000
    O1245   O    0.47856   0.14730   0.61640   1.000
    O1246   O    0.52145   0.85270   0.61640   1.000
    O1247   O    0.97856   0.64730   0.61640   1.000
    O1248   O    0.00207   0.32674   0.65144   1.000
    O1249   O    0.49794   0.17326   0.65144   1.000
    O1250   O    0.99794   0.67326   0.65144   1.000
    O1251   O    0.50206   0.82674   0.65144   1.000
    O1252   O    0.95096   0.25450   0.62872   1.000
    O1253   O    0.97441   0.30454   0.65419   1.000
    O1254   O    0.54904   0.24550   0.62872   1.000
    O1255   O    0.52559   0.19546   0.65419   1.000
    O1256   O    0.45096   0.75450   0.62872   1.000
    O1257   O    0.47441   0.80454   0.65419   1.000
    O1258   O    0.04904   0.74551   0.62872   1.000
    O1259   O    0.02559   0.69546   0.65419   1.000
    O1260   O    0.06907   0.30588   0.64738   1.000
    O1261   O    0.07841   0.25833   0.65309   1.000
    O1262   O    0.04252   0.26878   0.65394   1.000
    O1263   O    0.56907   0.80588   0.64739   1.000
    O1264   O    0.57842   0.75833   0.65309   1.000
    O1265   O    0.54253   0.76878   0.65394   1.000
    O1266   O    0.93093   0.69412   0.64739   1.000
    O1267   O    0.92159   0.74167   0.65309   1.000
    O1268   O    0.95748   0.73122   0.65394   1.000
    O1269   O    0.43093   0.19412   0.64739   1.000
    O1270   O    0.42159   0.24167   0.65309   1.000
    O1271   O    0.45747   0.23122   0.65394   1.000
    O1272   O    0.96242   0.19859   0.63582   1.000
    O1273   O    0.92096   0.24145   0.65417   1.000
    O1274   O    0.93109   0.19094   0.66037   1.000
    O1275   O    0.53759   0.30140   0.63582   1.000
    O1276   O    0.57904   0.25855   0.65417   1.000
    O1277   O    0.56891   0.30905   0.66037   1.000
    O1278   O    0.03758   0.80141   0.63582   1.000
    O1279   O    0.07904   0.75855   0.65417   1.000
    O1280   O    0.06891   0.80905   0.66037   1.000
    O1281   O    0.46241   0.69859   0.63582   1.000
    O1282   O    0.42096   0.74145   0.65417   1.000
    O1283   O    0.43109   0.69095   0.66037   1.000
    O1284   O    0.05734   0.17360   0.63855   1.000
    O1285   O    0.44267   0.32640   0.63855   1.000
    O1286   O    0.55734   0.67360   0.63855   1.000
    O1287   O    0.94266   0.82640   0.63855   1.000
    O1288   O    0.07090   0.35175   0.68450   1.000
    O1289   O    0.92911   0.64825   0.68450   1.000
    O1290   O    0.57090   0.85175   0.68450   1.000
    O1291   O    0.42910   0.14825   0.68450   1.000
    O1292   O    0.90374   0.28475   0.68680   1.000
    O1293   O    0.59626   0.21525   0.68680   1.000
    O1294   O    0.40374   0.78475   0.68680   1.000
    O1295   O    0.09626   0.71525   0.68680   1.000
    O1296   O    0.09539   0.22965   0.69760   1.000
    O1297   O    0.59539   0.72965   0.69760   1.000
    O1298   O    0.90461   0.77035   0.69760   1.000
    O1299   O    0.40461   0.27035   0.69760   1.000
    O1300   O    0.01896   0.22805   0.69111   1.000
    O1301   O    0.98104   0.77195   0.69111   1.000
    O1302   O    0.51897   0.72806   0.69111   1.000
    O1303   O    0.48103   0.27195   0.69111   1.000
    O1304   O    0.97628   0.27999   0.69299   1.000
    O1305   O    0.98872   0.31454   0.72284   1.000
    O1306   O    0.47628   0.77999   0.69299   1.000
    O1307   O    0.48872   0.81454   0.72284   1.000
    O1308   O    0.52372   0.22001   0.69299   1.000
    O1309   O    0.51128   0.18546   0.72284   1.000
    O1310   O    0.02372   0.72001   0.69299   1.000
    O1311   O    0.01128   0.68546   0.72284   1.000
    O1312   O    0.93037   0.15195   0.70395   1.000
    O1313   O    0.06963   0.84805   0.70395   1.000
    O1314   O    0.43037   0.65195   0.70395   1.000
    O1315   O    0.56963   0.34805   0.70395   1.000
    O1316   O    0.41884   0.81785   0.70295   1.000
    O1317   O    0.58116   0.18215   0.70295   1.000
    O1318   O    0.08116   0.68215   0.70295   1.000
    O1319   O    0.91884   0.31785   0.70295   1.000
    O1320   O    0.45219   0.13485   0.70545   1.000
    O1321   O    0.04781   0.36515   0.70545   1.000
    O1322   O    0.95219   0.63485   0.70545   1.000
    O1323   O    0.54781   0.86515   0.70545   1.000
    O1324   O    0.99099   0.16765   0.71596   1.000
    O1325   O    0.00902   0.83235   0.71596   1.000
    O1326   O    0.49099   0.66765   0.71596   1.000
    O1327   O    0.50902   0.33235   0.71596   1.000
    O1328   O    0.95882   0.24005   0.71660   1.000
    O1329   O    0.54119   0.25995   0.71660   1.000
    O1330   O    0.04119   0.75995   0.71660   1.000
    O1331   O    0.45881   0.74005   0.71660   1.000
    O1332   O    0.07998   0.20625   0.72400   1.000
    O1333   O    0.42001   0.29375   0.72400   1.000
    O1334   O    0.57999   0.70625   0.72400   1.000
    O1335   O    0.92002   0.79375   0.72400   1.000
    O1336   O    0.45387   0.64240   0.72565   1.000
    O1337   O    0.95387   0.14240   0.72565   1.000
    O1338   O    0.54613   0.35760   0.72565   1.000
    O1339   O    0.04613   0.85760   0.72565   1.000
    O1340   O    0.25320   0.49400   0.72820   1.000
    O1341   O    0.24507   0.45125   0.73415   1.000
    O1342   O    0.24680   0.00600   0.72820   1.000
    O1343   O    0.25492   0.04875   0.73415   1.000
    O1344   O    0.74680   0.50600   0.72820   1.000
    O1345   O    0.75493   0.54875   0.73415   1.000
    O1346   O    0.75320   0.99400   0.72820   1.000
    O1347   O    0.74508   0.95125   0.73415   1.000
    O1348   O    0.76048   0.57290   0.78574   1.000
    O1349   O    0.73952   0.92710   0.78574   1.000
    O1350   O    0.26049   0.07290   0.78574   1.000
    O1351   O    0.23952   0.42710   0.78574   1.000
    O1352   O    0.49545   0.79140   0.77490   1.000
    O1353   O    0.99546   0.29140   0.77490   1.000
    O1354   O    0.00455   0.70860   0.77490   1.000
    O1355   O    0.50455   0.20860   0.77490   1.000
    O1356   O    0.20349   0.59270   0.77885   1.000
    O1357   O    0.24104   0.57006   0.79115   1.000
    O1358   O    0.79651   0.40730   0.77885   1.000
    O1359   O    0.75896   0.42994   0.79115   1.000
    O1360   O    0.70349   0.09270   0.77885   1.000
    O1361   O    0.74104   0.07006   0.79115   1.000
    O1362   O    0.29651   0.90730   0.77885   1.000
    O1363   O    0.25896   0.92994   0.79115   1.000
    O1364   O    0.99580   0.75005   0.78155   1.000
    O1365   O    0.49580   0.25005   0.78155   1.000
    O1366   O    0.00420   0.24995   0.78155   1.000
    O1367   O    0.50420   0.74995   0.78155   1.000
    O1368   O    0.20857   0.03450   0.79745   1.000
    O1369   O    0.29144   0.46550   0.79745   1.000
    O1370   O    0.70857   0.53450   0.79745   1.000
    O1371   O    0.79143   0.96550   0.79745   1.000
    O1372   O    0.68025   0.08570   0.80220   1.000
    O1373   O    0.83158   0.04515   0.79275   1.000
    O1374   O    0.31975   0.91430   0.80220   1.000
    O1375   O    0.18025   0.58570   0.80220   1.000
    O1376   O    0.81975   0.41430   0.80220   1.000
    O1377   O    0.16842   0.95485   0.79275   1.000
    O1378   O    0.33158   0.54515   0.79275   1.000
    O1379   O    0.66842   0.45485   0.79275   1.000
    O1380   O    0.16965   0.43435   0.79785   1.000
    O1381   O    0.66965   0.93435   0.79785   1.000
    O1382   O    0.33035   0.06565   0.79785   1.000
    O1383   O    0.83035   0.56565   0.79785   1.000
    O1384   O    0.34680   0.51875   0.81695   1.000
    O1385   O    0.15321   0.98125   0.81695   1.000
    O1386   O    0.84680   0.01875   0.81695   1.000
    O1387   O    0.65321   0.48125   0.81695   1.000
    O1388   O    0.15434   0.46340   0.81865   1.000
    O1389   O    0.34567   0.03660   0.81865   1.000
    O1390   O    0.84566   0.53660   0.81865   1.000
    O1391   O    0.65434   0.96340   0.81865   1.000
    O1392   O    0.29733   0.37000   0.81155   1.000
    O1393   O    0.70267   0.63000   0.81155   1.000
    O1394   O    0.20267   0.13000   0.81155   1.000
    O1395   O    0.79733   0.87000   0.81155   1.000
    O1396   O    0.77369   0.01046   0.81020   1.000
    O1397   O    0.74401   0.02516   0.81775   1.000
    O1398   O    0.22632   0.98954   0.81020   1.000
    O1399   O    0.25599   0.97484   0.81775   1.000
    O1400   O    0.27369   0.51046   0.81020   1.000
    O1401   O    0.24401   0.52516   0.81775   1.000
    O1402   O    0.72631   0.48954   0.81020   1.000
    O1403   O    0.75599   0.47484   0.81775   1.000
    O1404   O    0.17914   0.11410   0.82940   1.000
    O1405   O    0.32086   0.38590   0.82940   1.000
    O1406   O    0.67914   0.61410   0.82940   1.000
    O1407   O    0.82086   0.88590   0.82940   1.000
    O1408   O    0.18143   0.54933   0.84839   1.000
    O1409   O    0.81858   0.45067   0.84839   1.000
    O1410   O    0.68143   0.04933   0.84839   1.000
    O1411   O    0.31857   0.95067   0.84839   1.000
    O1412   O    0.22015   0.42920   0.85599   1.000
    O1413   O    0.25129   0.42565   0.85664   1.000
    O1414   O    0.27985   0.07080   0.85599   1.000
    O1415   O    0.24871   0.07435   0.85664   1.000
    O1416   O    0.77985   0.57080   0.85599   1.000
    O1417   O    0.74871   0.57435   0.85664   1.000
    O1418   O    0.72015   0.92920   0.85599   1.000
    O1419   O    0.75129   0.92565   0.85664   1.000
    O1420   O    0.29236   0.98857   0.85164   1.000
    O1421   O    0.20764   0.51143   0.85164   1.000
    O1422   O    0.79236   0.48857   0.85164   1.000
    O1423   O    0.70764   0.01143   0.85164   1.000
    O1424   O    0.82927   0.98514   0.85797   1.000
    O1425   O    0.17073   0.01486   0.85797   1.000
    O1426   O    0.67073   0.51485   0.85797   1.000
    O1427   O    0.32927   0.48514   0.85797   1.000
    O1428   O    0.17146   0.50183   0.85554   1.000
    O1429   O    0.32854   0.99817   0.85554   1.000
    O1430   O    0.67146   0.00183   0.85554   1.000
    O1431   O    0.82854   0.49817   0.85554   1.000
    O1432   O    0.81944   0.93469   0.86347   1.000
    O1433   O    0.68056   0.56530   0.86347   1.000
    O1434   O    0.31944   0.43470   0.86347   1.000
    O1435   O    0.18056   0.06530   0.86347   1.000
    O1436   O    0.27144   0.89730   0.86640   1.000
    O1437   O    0.22856   0.60270   0.86640   1.000
    O1438   O    0.77145   0.39730   0.86640   1.000
    O1439   O    0.72856   0.10270   0.86640   1.000
    O1440   O    0.74794   0.07674   0.90144   1.000
    O1441   O    0.75206   0.42326   0.90144   1.000
    O1442   O    0.25206   0.92326   0.90144   1.000
    O1443   O    0.24794   0.57674   0.90144   1.000
    O1444   O    0.70096   0.49551   0.87872   1.000
    O1445   O    0.72441   0.44546   0.90419   1.000
    O1446   O    0.29904   0.50450   0.87872   1.000
    O1447   O    0.27559   0.55454   0.90419   1.000
    O1448   O    0.20096   0.99550   0.87872   1.000
    O1449   O    0.22441   0.94546   0.90419   1.000
    O1450   O    0.79904   0.00450   0.87872   1.000
    O1451   O    0.77559   0.05454   0.90419   1.000
    O1452   O    0.31907   0.94412   0.89739   1.000
    O1453   O    0.32841   0.99167   0.90309   1.000
    O1454   O    0.29252   0.98122   0.90394   1.000
    O1455   O    0.18093   0.55588   0.89739   1.000
    O1456   O    0.17159   0.50833   0.90309   1.000
    O1457   O    0.20747   0.51878   0.90394   1.000
    O1458   O    0.81907   0.44412   0.89739   1.000
    O1459   O    0.82842   0.49167   0.90309   1.000
    O1460   O    0.79253   0.48122   0.90394   1.000
    O1461   O    0.68093   0.05588   0.89739   1.000
    O1462   O    0.67159   0.00833   0.90309   1.000
    O1463   O    0.70748   0.01878   0.90394   1.000
    O1464   O    0.78758   0.94859   0.88582   1.000
    O1465   O    0.82904   0.99144   0.90417   1.000
    O1466   O    0.81891   0.94094   0.91037   1.000
    O1467   O    0.71242   0.55140   0.88582   1.000
    O1468   O    0.67096   0.50855   0.90417   1.000
    O1469   O    0.68109   0.55905   0.91037   1.000
    O1470   O    0.28759   0.44860   0.88582   1.000
    O1471   O    0.32904   0.49145   0.90417   1.000
    O1472   O    0.31891   0.44095   0.91037   1.000
    O1473   O    0.21242   0.05141   0.88582   1.000
    O1474   O    0.17096   0.00855   0.90417   1.000
    O1475   O    0.18109   0.05905   0.91037   1.000
    O1476   O    0.80734   0.57640   0.88855   1.000
    O1477   O    0.69267   0.92360   0.88855   1.000
    O1478   O    0.19267   0.42360   0.88855   1.000
    O1479   O    0.30734   0.07640   0.88855   1.000
    O1480   O    0.67911   0.10175   0.93450   1.000
    O1481   O    0.82090   0.39825   0.93450   1.000
    O1482   O    0.17911   0.60175   0.93450   1.000
    O1483   O    0.32089   0.89825   0.93450   1.000
    O1484   O    0.84626   0.03475   0.93680   1.000
    O1485   O    0.15374   0.96525   0.93680   1.000
    O1486   O    0.34626   0.53475   0.93680   1.000
    O1487   O    0.65374   0.46525   0.93680   1.000
    O1488   O    0.15461   0.47965   0.94760   1.000
    O1489   O    0.65461   0.97965   0.94760   1.000
    O1490   O    0.84539   0.52035   0.94760   1.000
    O1491   O    0.34539   0.02035   0.94760   1.000
    O1492   O    0.23103   0.47806   0.94111   1.000
    O1493   O    0.76897   0.52194   0.94111   1.000
    O1494   O    0.73104   0.97806   0.94111   1.000
    O1495   O    0.26897   0.02195   0.94111   1.000
    O1496   O    0.77372   0.02999   0.94299   1.000
    O1497   O    0.72628   0.47001   0.94299   1.000
    O1498   O    0.27372   0.52999   0.94299   1.000
    O1499   O    0.22629   0.97001   0.94299   1.000
    O1500   O    0.18037   0.09805   0.95395   1.000
    O1501   O    0.81963   0.90195   0.95395   1.000
    O1502   O    0.31963   0.40195   0.95395   1.000
    O1503   O    0.68037   0.59805   0.95395   1.000
    O1504   O    0.83116   0.06785   0.95295   1.000
    O1505   O    0.16884   0.93215   0.95295   1.000
    O1506   O    0.33116   0.56785   0.95295   1.000
    O1507   O    0.66884   0.43215   0.95295   1.000
    O1508   O    0.70219   0.11515   0.95545   1.000
    O1509   O    0.79781   0.38485   0.95545   1.000
    O1510   O    0.20219   0.61515   0.95545   1.000
    O1511   O    0.29781   0.88485   0.95545   1.000
    O1512   O    0.75902   0.91765   0.96596   1.000
    O1513   O    0.74099   0.58235   0.96596   1.000
    O1514   O    0.25901   0.41766   0.96596   1.000
    O1515   O    0.24099   0.08235   0.96596   1.000
    O1516   O    0.70881   0.50995   0.96660   1.000
    O1517   O    0.79119   0.99005   0.96660   1.000
    O1518   O    0.29119   0.49005   0.96660   1.000
    O1519   O    0.20881   0.00995   0.96660   1.000
    O1520   O    0.67002   0.95625   0.97400   1.000
    O1521   O    0.32998   0.04375   0.97400   1.000
    O1522   O    0.82998   0.54375   0.97400   1.000
    O1523   O    0.17001   0.45625   0.97400   1.000
    O1524   O    0.29613   0.39240   0.97565   1.000
    O1525   O    0.70387   0.60760   0.97565   1.000
    O1526   O    0.79613   0.89240   0.97565   1.000
    O1527   O    0.20387   0.10760   0.97565   1.000
    O1528   O    0.50320   0.75600   0.97820   1.000
    O1529   O    0.49507   0.79875   0.98415   1.000
    O1530   O    0.00320   0.25600   0.97820   1.000
    O1531   O    0.99508   0.29875   0.98415   1.000
    O1532   O    0.49680   0.24400   0.97820   1.000
    O1533   O    0.50493   0.20125   0.98415   1.000
    O1534   O    0.99680   0.74400   0.97820   1.000
    O1535   O    0.00493   0.70125   0.98415   1.000
    O1536   O    0.97454   0.29521   0.59155   1.000
    O1537   O    0.99881   0.18485   0.66971   1.000
    O1538   O    0.00219   0.31741   0.58880   1.000
    O1539   O    0.03857   0.30368   0.62269   1.000
    O1540   O    0.79048   0.05226   0.79660   1.000
    O1541   O    0.78945   0.05580   0.46666   1.000
    O1542   O    0.20951   0.42541   0.44579   1.000
    O1543   O    0.00948   0.34234   0.69709   1.000
    O1544   O    0.98923   0.21620   0.70141   1.000
    O1545   O    0.95283   0.22995   0.66752   1.000
    O1546   O    0.21044   0.42285   0.80884   1.000
    O1547   O    0.98959   0.29070   0.23791   1.000
    O1548   O    0.98965   0.28351   0.52180   1.000
    O1549   O    0.00602   0.29184   0.68269   1.000
    O1550   O    0.01870   0.21150   0.57574   1.000
    O1551   O    0.02995   0.18840   0.66906   1.000
    O1552   O    0.05351   0.22913   0.63189   1.000
    O1553   O    0.95274   0.21974   0.59737   1.000
    O1554   O    0.98903   0.19680   0.56819   1.000
    O1555   O    0.99038   0.14585   0.56644   1.000
    O1556   O    0.02546   0.70479   0.59155   1.000
    O1557   O    0.22454   0.95479   0.84155   1.000
    O1558   O    0.27546   0.54521   0.84155   1.000
    O1559   O    0.47454   0.29521   0.09155   1.000
    O1560   O    0.52546   0.70479   0.09155   1.000
    O1561   O    0.72454   0.95479   0.34155   1.000
    O1562   O    0.77546   0.54521   0.34155   1.000
    O1563   O    0.97454   0.79521   0.09155   1.000
    O1564   O    0.02546   0.20479   0.09155   1.000
    O1565   O    0.22454   0.45479   0.34155   1.000
    O1566   O    0.27546   0.04521   0.34155   1.000
    O1567   O    0.47454   0.79521   0.59155   1.000
    O1568   O    0.52546   0.20479   0.59155   1.000
    O1569   O    0.72454   0.45479   0.84155   1.000
    O1570   O    0.77546   0.04521   0.84155   1.000
    O1571   O    0.00119   0.81515   0.66971   1.000
    O1572   O    0.24881   0.06515   0.91971   1.000
    O1573   O    0.25119   0.43486   0.91971   1.000
    O1574   O    0.49881   0.18486   0.16971   1.000
    O1575   O    0.50119   0.81515   0.16971   1.000
    O1576   O    0.74881   0.06515   0.41971   1.000
    O1577   O    0.75119   0.43485   0.41971   1.000
    O1578   O    0.99881   0.68486   0.16971   1.000
    O1579   O    0.00119   0.31515   0.16971   1.000
    O1580   O    0.24881   0.56515   0.41971   1.000
    O1581   O    0.25119   0.93486   0.41971   1.000
    O1582   O    0.49881   0.68486   0.66971   1.000
    O1583   O    0.50119   0.31515   0.66971   1.000
    O1584   O    0.74881   0.56515   0.91971   1.000
    O1585   O    0.75119   0.93485   0.91971   1.000
    O1586   O    0.99780   0.68259   0.58880   1.000
    O1587   O    0.96143   0.69632   0.62269   1.000
    O1588   O    0.25219   0.93259   0.83880   1.000
    O1589   O    0.28857   0.94632   0.87269   1.000
    O1590   O    0.24781   0.56741   0.83880   1.000
    O1591   O    0.21143   0.55368   0.87269   1.000
    O1592   O    0.50220   0.31741   0.08880   1.000
    O1593   O    0.53857   0.30368   0.12269   1.000
    O1594   O    0.49781   0.68259   0.08880   1.000
    O1595   O    0.46143   0.69632   0.12269   1.000
    O1596   O    0.75219   0.93259   0.33880   1.000
    O1597   O    0.78857   0.94632   0.37269   1.000
    O1598   O    0.74781   0.56741   0.33880   1.000
    O1599   O    0.71143   0.55368   0.37269   1.000
    O1600   O    0.00220   0.81741   0.08880   1.000
    O1601   O    0.03857   0.80368   0.12269   1.000
    O1602   O    0.99780   0.18259   0.08880   1.000
    O1603   O    0.96143   0.19632   0.12269   1.000
    O1604   O    0.25219   0.43259   0.33880   1.000
    O1605   O    0.28857   0.44632   0.37269   1.000
    O1606   O    0.24780   0.06741   0.33880   1.000
    O1607   O    0.21143   0.05368   0.37269   1.000
    O1608   O    0.50220   0.81741   0.58880   1.000
    O1609   O    0.53857   0.80368   0.62269   1.000
    O1610   O    0.49781   0.18259   0.58880   1.000
    O1611   O    0.46143   0.19632   0.62269   1.000
    O1612   O    0.75219   0.43259   0.83880   1.000
    O1613   O    0.78857   0.44632   0.87269   1.000
    O1614   O    0.74781   0.06741   0.83880   1.000
    O1615   O    0.71143   0.05368   0.87269   1.000
    O1616   O    0.20952   0.94774   0.79660   1.000
    O1617   O    0.04048   0.19774   0.04660   1.000
    O1618   O    0.45952   0.30226   0.04660   1.000
    O1619   O    0.29048   0.05226   0.29660   1.000
    O1620   O    0.70952   0.94774   0.29660   1.000
    O1621   O    0.54048   0.19774   0.54660   1.000
    O1622   O    0.95952   0.30226   0.54660   1.000
    O1623   O    0.79048   0.55226   0.29660   1.000
    O1624   O    0.20952   0.44774   0.29660   1.000
    O1625   O    0.04048   0.69774   0.54660   1.000
    O1626   O    0.45952   0.80226   0.54660   1.000
    O1627   O    0.29048   0.55226   0.79660   1.000
    O1628   O    0.70952   0.44774   0.79660   1.000
    O1629   O    0.54048   0.69774   0.04660   1.000
    O1630   O    0.95952   0.80226   0.04660   1.000
    O1631   O    0.21055   0.94420   0.46666   1.000
    O1632   O    0.03945   0.19420   0.71666   1.000
    O1633   O    0.46055   0.30579   0.71666   1.000
    O1634   O    0.28945   0.05580   0.96666   1.000
    O1635   O    0.71055   0.94420   0.96666   1.000
    O1636   O    0.53945   0.19420   0.21666   1.000
    O1637   O    0.96055   0.30579   0.21666   1.000
    O1638   O    0.78945   0.55579   0.96666   1.000
    O1639   O    0.21055   0.44421   0.96666   1.000
    O1640   O    0.03945   0.69420   0.21666   1.000
    O1641   O    0.46055   0.80580   0.21666   1.000
    O1642   O    0.28945   0.55580   0.46666   1.000
    O1643   O    0.71055   0.44420   0.46666   1.000
    O1644   O    0.53945   0.69420   0.71666   1.000
    O1645   O    0.96055   0.80580   0.71666   1.000
    O1646   O    0.79049   0.57459   0.44579   1.000
    O1647   O    0.45951   0.82459   0.69579   1.000
    O1648   O    0.04049   0.67541   0.69579   1.000
    O1649   O    0.70951   0.42541   0.94579   1.000
    O1650   O    0.29049   0.57459   0.94579   1.000
    O1651   O    0.95951   0.82459   0.19579   1.000
    O1652   O    0.54049   0.67541   0.19579   1.000
    O1653   O    0.20951   0.92541   0.94579   1.000
    O1654   O    0.79049   0.07459   0.94579   1.000
    O1655   O    0.45951   0.32459   0.19579   1.000
    O1656   O    0.04049   0.17541   0.19579   1.000
    O1657   O    0.70951   0.92541   0.44579   1.000
    O1658   O    0.29049   0.07459   0.44579   1.000
    O1659   O    0.95951   0.32459   0.69579   1.000
    O1660   O    0.54049   0.17541   0.69579   1.000
    O1661   O    0.99052   0.65766   0.69709   1.000
    O1662   O    0.25948   0.90766   0.94709   1.000
    O1663   O    0.24052   0.59234   0.94709   1.000
    O1664   O    0.50948   0.34234   0.19709   1.000
    O1665   O    0.49052   0.65766   0.19709   1.000
    O1666   O    0.75948   0.90766   0.44709   1.000
    O1667   O    0.74052   0.59234   0.44709   1.000
    O1668   O    0.00948   0.84234   0.19709   1.000
    O1669   O    0.99052   0.15766   0.19709   1.000
    O1670   O    0.25948   0.40766   0.44709   1.000
    O1671   O    0.24052   0.09234   0.44709   1.000
    O1672   O    0.50948   0.84234   0.69709   1.000
    O1673   O    0.49052   0.15766   0.69709   1.000
    O1674   O    0.75948   0.40766   0.94709   1.000
    O1675   O    0.74052   0.09234   0.94709   1.000
    O1676   O    0.01077   0.78380   0.70141   1.000
    O1677   O    0.04717   0.77006   0.66752   1.000
    O1678   O    0.23923   0.03379   0.95141   1.000
    O1679   O    0.20284   0.02005   0.91752   1.000
    O1680   O    0.26077   0.46621   0.95141   1.000
    O1681   O    0.29717   0.47995   0.91752   1.000
    O1682   O    0.48923   0.21621   0.20141   1.000
    O1683   O    0.45283   0.22995   0.16752   1.000
    O1684   O    0.51077   0.78380   0.20141   1.000
    O1685   O    0.54717   0.77006   0.16752   1.000
    O1686   O    0.73923   0.03379   0.45141   1.000
    O1687   O    0.70283   0.02005   0.41752   1.000
    O1688   O    0.76077   0.46620   0.45141   1.000
    O1689   O    0.79717   0.47995   0.41752   1.000
    O1690   O    0.98923   0.71620   0.20141   1.000
    O1691   O    0.95283   0.72995   0.16752   1.000
    O1692   O    0.01077   0.28380   0.20141   1.000
    O1693   O    0.04717   0.27005   0.16752   1.000
    O1694   O    0.23923   0.53380   0.45141   1.000
    O1695   O    0.20283   0.52006   0.41752   1.000
    O1696   O    0.26077   0.96620   0.45141   1.000
    O1697   O    0.29717   0.97995   0.41752   1.000
    O1698   O    0.48923   0.71620   0.70141   1.000
    O1699   O    0.45283   0.72995   0.66752   1.000
    O1700   O    0.51077   0.28380   0.70141   1.000
    O1701   O    0.54717   0.27005   0.66752   1.000
    O1702   O    0.73923   0.53380   0.95141   1.000
    O1703   O    0.70283   0.52005   0.91752   1.000
    O1704   O    0.76077   0.96620   0.95141   1.000
    O1705   O    0.79717   0.97994   0.91752   1.000
    O1706   O    0.78956   0.57715   0.80884   1.000
    O1707   O    0.46044   0.82715   0.05884   1.000
    O1708   O    0.03956   0.67285   0.05884   1.000
    O1709   O    0.71044   0.42285   0.30884   1.000
    O1710   O    0.28956   0.57715   0.30884   1.000
    O1711   O    0.96044   0.82715   0.55884   1.000
    O1712   O    0.53956   0.67285   0.55884   1.000
    O1713   O    0.21044   0.92285   0.30884   1.000
    O1714   O    0.78956   0.07715   0.30884   1.000
    O1715   O    0.46044   0.32715   0.55884   1.000
    O1716   O    0.03956   0.17285   0.55884   1.000
    O1717   O    0.71044   0.92285   0.80884   1.000
    O1718   O    0.28956   0.07715   0.80884   1.000
    O1719   O    0.96044   0.32715   0.05884   1.000
    O1720   O    0.53956   0.17285   0.05884   1.000
    O1721   O    0.01041   0.70931   0.23791   1.000
    O1722   O    0.23959   0.95931   0.48791   1.000
    O1723   O    0.26042   0.54070   0.48791   1.000
    O1724   O    0.48959   0.29069   0.73791   1.000
    O1725   O    0.51042   0.70931   0.73791   1.000
    O1726   O    0.73958   0.95930   0.98791   1.000
    O1727   O    0.76042   0.54070   0.98791   1.000
    O1728   O    0.98959   0.79070   0.73791   1.000
    O1729   O    0.01041   0.20930   0.73791   1.000
    O1730   O    0.23959   0.45931   0.98791   1.000
    O1731   O    0.26042   0.04069   0.98791   1.000
    O1732   O    0.48959   0.79070   0.23791   1.000
    O1733   O    0.51042   0.20930   0.23791   1.000
    O1734   O    0.73958   0.45930   0.48791   1.000
    O1735   O    0.76042   0.04069   0.48791   1.000
    O1736   O    0.01035   0.71649   0.52180   1.000
    O1737   O    0.23965   0.96649   0.77180   1.000
    O1738   O    0.26035   0.53351   0.77180   1.000
    O1739   O    0.48965   0.28351   0.02180   1.000
    O1740   O    0.51035   0.71649   0.02180   1.000
    O1741   O    0.73965   0.96649   0.27180   1.000
    O1742   O    0.76035   0.53351   0.27180   1.000
    O1743   O    0.98965   0.78351   0.02180   1.000
    O1744   O    0.01035   0.21649   0.02180   1.000
    O1745   O    0.23965   0.46649   0.27180   1.000
    O1746   O    0.26035   0.03351   0.27180   1.000
    O1747   O    0.48965   0.78351   0.52180   1.000
    O1748   O    0.51035   0.21649   0.52180   1.000
    O1749   O    0.73965   0.46649   0.77180   1.000
    O1750   O    0.76035   0.03351   0.77180   1.000
    O1751   O    0.99398   0.70816   0.68269   1.000
    O1752   O    0.25602   0.95816   0.93269   1.000
    O1753   O    0.24398   0.54184   0.93269   1.000
    O1754   O    0.50602   0.29184   0.18269   1.000
    O1755   O    0.49398   0.70816   0.18269   1.000
    O1756   O    0.75602   0.95816   0.43269   1.000
    O1757   O    0.74398   0.54184   0.43269   1.000
    O1758   O    0.00602   0.79184   0.18269   1.000
    O1759   O    0.99398   0.20816   0.18269   1.000
    O1760   O    0.25602   0.45816   0.43269   1.000
    O1761   O    0.24398   0.04184   0.43269   1.000
    O1762   O    0.50602   0.79184   0.68269   1.000
    O1763   O    0.49398   0.20816   0.68269   1.000
    O1764   O    0.75602   0.45816   0.93269   1.000
    O1765   O    0.74398   0.04184   0.93269   1.000
    O1766   O    0.98130   0.78850   0.57574   1.000
    O1767   O    0.26870   0.03850   0.82574   1.000
    O1768   O    0.23130   0.46150   0.82574   1.000
    O1769   O    0.51870   0.21150   0.07574   1.000
    O1770   O    0.48130   0.78850   0.07574   1.000
    O1771   O    0.76870   0.03850   0.32574   1.000
    O1772   O    0.73130   0.46150   0.32574   1.000
    O1773   O    0.01870   0.71150   0.07574   1.000
    O1774   O    0.98130   0.28850   0.07574   1.000
    O1775   O    0.26870   0.53850   0.32574   1.000
    O1776   O    0.23130   0.96150   0.32574   1.000
    O1777   O    0.51870   0.71150   0.57574   1.000
    O1778   O    0.48130   0.28850   0.57574   1.000
    O1779   O    0.76870   0.53850   0.82574   1.000
    O1780   O    0.73130   0.96150   0.82574   1.000
    O1781   O    0.97005   0.81160   0.66906   1.000
    O1782   O    0.94649   0.77087   0.63189   1.000
    O1783   O    0.27995   0.06160   0.91906   1.000
    O1784   O    0.30351   0.02087   0.88189   1.000
    O1785   O    0.22005   0.43841   0.91906   1.000
    O1786   O    0.19649   0.47913   0.88189   1.000
    O1787   O    0.52995   0.18840   0.16906   1.000
    O1788   O    0.55351   0.22913   0.13189   1.000
    O1789   O    0.47005   0.81160   0.16906   1.000
    O1790   O    0.44649   0.77087   0.13189   1.000
    O1791   O    0.77995   0.06160   0.41906   1.000
    O1792   O    0.80351   0.02087   0.38189   1.000
    O1793   O    0.72005   0.43841   0.41906   1.000
    O1794   O    0.69649   0.47913   0.38189   1.000
    O1795   O    0.02995   0.68841   0.16906   1.000
    O1796   O    0.05351   0.72913   0.13189   1.000
    O1797   O    0.97005   0.31160   0.16906   1.000
    O1798   O    0.94649   0.27087   0.13189   1.000
    O1799   O    0.27995   0.56159   0.41906   1.000
    O1800   O    0.30351   0.52087   0.38189   1.000
    O1801   O    0.22005   0.93841   0.41906   1.000
    O1802   O    0.19649   0.97913   0.38189   1.000
    O1803   O    0.52995   0.68841   0.66906   1.000
    O1804   O    0.55351   0.72913   0.63189   1.000
    O1805   O    0.47005   0.31160   0.66906   1.000
    O1806   O    0.44649   0.27087   0.63189   1.000
    O1807   O    0.77995   0.56159   0.91906   1.000
    O1808   O    0.80351   0.52087   0.88189   1.000
    O1809   O    0.72005   0.93840   0.91906   1.000
    O1810   O    0.69649   0.97913   0.88189   1.000
    O1811   O    0.04727   0.78026   0.59737   1.000
    O1812   O    0.01098   0.80320   0.56819   1.000
    O1813   O    0.20274   0.03025   0.84737   1.000
    O1814   O    0.23903   0.05320   0.81819   1.000
    O1815   O    0.29727   0.46975   0.84737   1.000
    O1816   O    0.26098   0.44680   0.81819   1.000
    O1817   O    0.45274   0.21975   0.09737   1.000
    O1818   O    0.48903   0.19680   0.06819   1.000
    O1819   O    0.54727   0.78026   0.09737   1.000
    O1820   O    0.51098   0.80320   0.06819   1.000
    O1821   O    0.70274   0.03025   0.34737   1.000
    O1822   O    0.73903   0.05320   0.31819   1.000
    O1823   O    0.79727   0.46975   0.34737   1.000
    O1824   O    0.76098   0.44680   0.31819   1.000
    O1825   O    0.95274   0.71975   0.09737   1.000
    O1826   O    0.98903   0.69680   0.06819   1.000
    O1827   O    0.04727   0.28025   0.09737   1.000
    O1828   O    0.01098   0.30320   0.06819   1.000
    O1829   O    0.20273   0.53026   0.34737   1.000
    O1830   O    0.23902   0.55320   0.31819   1.000
    O1831   O    0.29727   0.96975   0.34737   1.000
    O1832   O    0.26098   0.94680   0.31819   1.000
    O1833   O    0.45273   0.71975   0.59737   1.000
    O1834   O    0.48902   0.69680   0.56819   1.000
    O1835   O    0.54727   0.28025   0.59737   1.000
    O1836   O    0.51098   0.30320   0.56819   1.000
    O1837   O    0.70274   0.53025   0.84737   1.000
    O1838   O    0.73903   0.55320   0.81819   1.000
    O1839   O    0.79727   0.96974   0.84737   1.000
    O1840   O    0.76098   0.94680   0.81819   1.000
    O1841   O    0.00962   0.85415   0.56644   1.000
    O1842   O    0.24038   0.10415   0.81644   1.000
    O1843   O    0.25962   0.39585   0.81644   1.000
    O1844   O    0.49038   0.14585   0.06644   1.000
    O1845   O    0.50962   0.85415   0.06644   1.000
    O1846   O    0.74038   0.10415   0.31644   1.000
    O1847   O    0.75962   0.39585   0.31644   1.000
    O1848   O    0.99038   0.64585   0.06644   1.000
    O1849   O    0.00962   0.35415   0.06644   1.000
    O1850   O    0.24038   0.60415   0.31644   1.000
    O1851   O    0.25962   0.89585   0.31644   1.000
    O1852   O    0.49038   0.64585   0.56644   1.000
    O1853   O    0.50962   0.35415   0.56644   1.000
    O1854   O    0.74038   0.60415   0.81644   1.000
    O1855   O    0.75962   0.89585   0.81644   1.000
    N1856   N    0.25000   0.75000   0.02851   1.000
    N1857   N    0.10521   0.93112   0.51240   1.000
    O1858   O    0.08954   0.91318   0.53135   1.000
    O1859   O    0.12327   0.94441   0.49508   1.000
    N1860   N    0.24870   0.96545   0.12953   1.000
    O1861   O    0.24858   0.96643   0.16244   1.000
    O1862   O    0.24910   0.96888   0.09699   1.000
    N1863   N    0.91224   0.19762   0.39826   1.000
    N1864   N    0.10312   0.90057   0.98568   1.000
    O1865   O    0.12133   0.91683   0.97167   1.000
    O1866   O    0.08778   0.88143   0.00229   1.000
    N1867   N    0.44937   0.42745   0.69762   1.000
    O1868   O    0.46374   0.38770   0.70114   1.000
    N1869   N    0.85528   0.83722   0.50533   1.000
    O1870   O    0.83982   0.85361   0.48627   1.000
    O1871   O    0.87264   0.82451   0.52282   1.000
    N1872   N    0.75040   0.14250   0.65850   1.000
    N1873   N    0.00000   0.00000   0.49470   1.000
    N1874   N    0.99960   0.39250   0.40850   1.000
    N1875   N    0.99517   0.42430   0.65143   1.000
    O1876   O    0.98759   0.39157   0.66496   1.000
    N1877   N    0.19120   0.83970   0.34440   1.000
    O1878   O    0.20967   0.86205   0.33632   1.000
    N1879   N    0.05063   0.07255   0.69762   1.000
    O1880   O    0.03626   0.11230   0.70114   1.000
    N1881   N    0.91674   0.23446   0.85254   1.000
    N1882   N    0.05880   0.08970   0.59440   1.000
    O1883   O    0.04033   0.11205   0.58632   1.000
    N1884   N    0.10528   0.41278   0.75533   1.000
    O1885   O    0.12264   0.42549   0.77282   1.000
    O1886   O    0.08982   0.39639   0.73627   1.000
    N1887   N    0.92667   0.97480   0.37783   1.000
    N1888   N    0.02175   0.08165   0.46390   1.000
    N1889   N    0.14732   0.16730   0.01647   1.000
    O1890   O    0.12941   0.18460   0.02933   1.000
    O1891   O    0.16268   0.14725   0.00096   1.000
    N1892   N    0.89479   0.56888   0.01240   1.000
    O1893   O    0.87673   0.55559   0.99508   1.000
    O1894   O    0.91046   0.58682   0.03135   1.000
    N1895   N    0.39479   0.56888   0.51240   1.000
    O1896   O    0.37673   0.55559   0.49508   1.000
    O1897   O    0.41046   0.58682   0.53135   1.000
    N1898   N    0.35528   0.83722   0.00533   1.000
    O1899   O    0.37264   0.82451   0.02282   1.000
    O1900   O    0.33982   0.85361   0.98627   1.000
    N1901   N    0.64472   0.66278   0.50533   1.000
    O1902   O    0.62736   0.67549   0.52282   1.000
    O1903   O    0.66018   0.64639   0.48627   1.000
    N1904   N    0.00000   0.50000   0.77851   1.000
    N1905   N    0.89732   0.08270   0.76647   1.000
    O1906   O    0.87941   0.06540   0.77933   1.000
    O1907   O    0.91268   0.10275   0.75096   1.000
    N1908   N    0.33776   0.94762   0.14826   1.000
    N1909   N    0.95237   0.41240   0.54850   1.000
    O1910   O    0.96618   0.37643   0.55180   1.000
    N1911   N    0.74870   0.96545   0.62953   1.000
    O1912   O    0.74858   0.96643   0.66244   1.000
    O1913   O    0.74910   0.96888   0.59699   1.000
    N1914   N    0.89479   0.06888   0.51240   1.000
    O1915   O    0.91046   0.08682   0.53135   1.000
    O1916   O    0.87673   0.05559   0.49508   1.000
    N1917   N    0.00130   0.21545   0.37953   1.000
    O1918   O    0.00090   0.21888   0.34699   1.000
    O1919   O    0.00143   0.21643   0.41244   1.000
    N1920   N    0.60312   0.40057   0.98568   1.000
    O1921   O    0.62133   0.41683   0.97167   1.000
    O1922   O    0.58778   0.38143   0.00229   1.000
    N1923   N    0.39472   0.58722   0.25533   1.000
    O1924   O    0.37736   0.57451   0.27282   1.000
    O1925   O    0.41018   0.60361   0.23627   1.000
    N1926   N    0.89688   0.59943   0.48568   1.000
    O1927   O    0.87867   0.58317   0.47167   1.000
    O1928   O    0.91222   0.61857   0.50229   1.000
    N1929   N    0.35528   0.33722   0.50533   1.000
    O1930   O    0.33982   0.35361   0.48627   1.000
    O1931   O    0.37264   0.32451   0.52282   1.000
    N1932   N    0.10312   0.40057   0.48568   1.000
    O1933   O    0.12133   0.41683   0.47167   1.000
    O1934   O    0.08778   0.38143   0.50229   1.000
    N1935   N    0.10528   0.91278   0.25533   1.000
    O1936   O    0.12264   0.92549   0.27282   1.000
    O1937   O    0.08982   0.89639   0.23627   1.000
    N1938   N    0.79763   0.16240   0.79850   1.000
    O1939   O    0.78382   0.12643   0.80180   1.000
    N1940   N    0.60528   0.41278   0.25533   1.000
    O1941   O    0.62264   0.42549   0.27282   1.000
    O1942   O    0.58982   0.39639   0.23627   1.000
    N1943   N    0.89472   0.58722   0.75533   1.000
    O1944   O    0.87736   0.57451   0.77282   1.000
    O1945   O    0.91018   0.60361   0.73627   1.000
    N1946   N    0.64472   0.16278   0.00533   1.000
    O1947   O    0.66018   0.14639   0.98627   1.000
    O1948   O    0.62736   0.17549   0.02282   1.000
    N1949   N    0.24870   0.46545   0.62953   1.000
    O1950   O    0.24858   0.46643   0.66244   1.000
    O1951   O    0.24910   0.46888   0.59699   1.000
    N1952   N    0.75483   0.67430   0.40143   1.000
    O1953   O    0.76241   0.64157   0.41496   1.000
    N1954   N    0.25130   0.03455   0.62953   1.000
    O1955   O    0.25143   0.03357   0.66244   1.000
    O1956   O    0.25090   0.03112   0.59699   1.000
    N1957   N    0.75000   0.75000   0.74470   1.000
    N1958   N    0.57333   0.02520   0.87783   1.000
    N1959   N    0.66224   0.05238   0.14826   1.000
    N1960   N    0.50130   0.71545   0.37953   1.000
    O1961   O    0.50143   0.71643   0.41244   1.000
    O1962   O    0.50090   0.71888   0.34699   1.000
    N1963   N    0.64479   0.18112   0.26240   1.000
    O1964   O    0.66046   0.16318   0.28135   1.000
    O1965   O    0.62673   0.19441   0.24508   1.000
    N1966   N    0.27175   0.16835   0.71390   1.000
    N1967   N    0.80880   0.16030   0.34440   1.000
    O1968   O    0.79033   0.13795   0.33632   1.000
    N1969   N    0.25130   0.53455   0.12953   1.000
    O1970   O    0.25143   0.53358   0.16244   1.000
    O1971   O    0.25090   0.53112   0.09699   1.000
    N1972   N    0.10268   0.41730   0.26647   1.000
    O1973   O    0.08732   0.39725   0.25096   1.000
    O1974   O    0.12059   0.43460   0.27933   1.000
    N1975   N    0.89732   0.58270   0.26647   1.000
    O1976   O    0.91268   0.60275   0.25096   1.000
    O1977   O    0.87941   0.56540   0.27933   1.000
    N1978   N    0.25000   0.25000   0.52851   1.000
    N1979   N    0.75000   0.75000   0.52851   1.000
    N1980   N    0.99870   0.78455   0.37953   1.000
    O1981   O    0.99910   0.78112   0.34699   1.000
    O1982   O    0.99857   0.78358   0.41244   1.000
    N1983   N    0.14479   0.68112   0.26240   1.000
    O1984   O    0.12673   0.69441   0.24508   1.000
    O1985   O    0.16046   0.66318   0.28135   1.000
    N1986   N    0.19937   0.82255   0.44762   1.000
    O1987   O    0.21374   0.86230   0.45114   1.000
    N1988   N    0.83776   0.44762   0.14826   1.000
    N1989   N    0.91224   0.69762   0.89826   1.000
    N1990   N    0.08776   0.30238   0.89826   1.000
    N1991   N    0.30063   0.67745   0.44762   1.000
    O1992   O    0.28626   0.63770   0.45114   1.000
    N1993   N    0.16224   0.55238   0.14826   1.000
    N1994   N    0.69937   0.32255   0.44762   1.000
    O1995   O    0.71374   0.36230   0.45114   1.000
    N1996   N    0.72825   0.83165   0.71390   1.000
    N1997   N    0.14472   0.66278   0.00533   1.000
    O1998   O    0.16018   0.64639   0.98627   1.000
    O1999   O    0.12736   0.67549   0.02282   1.000
    N2000   N    0.58776   0.30238   0.39826   1.000
    N2001   N    0.54763   0.58760   0.04850   1.000
    O2002   O    0.53382   0.62357   0.05180   1.000
    N2003   N    0.43750   0.89650   0.39450   1.000
    N2004   N    0.99960   0.89250   0.90850   1.000
    N2005   N    0.30880   0.16030   0.84440   1.000
    O2006   O    0.29033   0.13795   0.83632   1.000
    N2007   N    0.74960   0.85750   0.15850   1.000
    N2008   N    0.14472   0.16278   0.50533   1.000
    O2009   O    0.16018   0.14639   0.48627   1.000
    O2010   O    0.12736   0.17549   0.52282   1.000
    N2011   N    0.41224   0.69762   0.39826   1.000
    N2012   N    0.83326   0.98446   0.10254   1.000
    N2013   N    0.16674   0.01554   0.10254   1.000
    N2014   N    0.74870   0.46545   0.12953   1.000
    O2015   O    0.74858   0.46642   0.16244   1.000
    O2016   O    0.74910   0.46887   0.09699   1.000
    N2017   N    0.89472   0.08722   0.25533   1.000
    O2018   O    0.87736   0.07451   0.27282   1.000
    O2019   O    0.91018   0.10361   0.23627   1.000
    N2020   N    0.06250   0.60350   0.39450   1.000
    N2021   N    0.55063   0.07255   0.19762   1.000
    O2022   O    0.53626   0.11230   0.20114   1.000
    N2023   N    0.41674   0.23446   0.35254   1.000
    N2024   N    0.75130   0.53455   0.62953   1.000
    O2025   O    0.75090   0.53113   0.59699   1.000
    O2026   O    0.75143   0.53358   0.66244   1.000
    N2027   N    0.67667   0.77520   0.62783   1.000
    N2028   N    0.75130   0.03455   0.12953   1.000
    O2029   O    0.75090   0.03112   0.09699   1.000
    O2030   O    0.75143   0.03357   0.16244   1.000
    N2031   N    0.33776   0.44762   0.64826   1.000
    N2032   N    0.70237   0.83760   0.29850   1.000
    O2033   O    0.71618   0.87357   0.30180   1.000
    N2034   N    0.33326   0.48446   0.10254   1.000
    N2035   N    0.75000   0.25000   0.02851   1.000
    N2036   N    0.85268   0.83270   0.01647   1.000
    O2037   O    0.87059   0.81540   0.02933   1.000
    O2038   O    0.83732   0.85275   0.00096   1.000
    N2039   N    0.04763   0.58760   0.54850   1.000
    O2040   O    0.03382   0.62357   0.55180   1.000
    N2041   N    0.54763   0.08760   0.54850   1.000
    O2042   O    0.53382   0.12357   0.55180   1.000
    N2043   N    0.45237   0.91240   0.54850   1.000
    O2044   O    0.46618   0.87643   0.55180   1.000
    N2045   N    0.94120   0.91030   0.59440   1.000
    O2046   O    0.95967   0.88795   0.58632   1.000
    N2047   N    0.55880   0.58970   0.59440   1.000
    O2048   O    0.54033   0.61205   0.58632   1.000
    N2049   N    0.44120   0.41030   0.59440   1.000
    O2050   O    0.45967   0.38795   0.58632   1.000
    N2051   N    0.35268   0.83270   0.51647   1.000
    O2052   O    0.37059   0.81540   0.52933   1.000
    O2053   O    0.33732   0.85275   0.50096   1.000
    N2054   N    0.60268   0.91730   0.26647   1.000
    O2055   O    0.62059   0.93460   0.27933   1.000
    O2056   O    0.58732   0.89725   0.25096   1.000
    N2057   N    0.66224   0.55238   0.64826   1.000
    N2058   N    0.92667   0.47480   0.87783   1.000
    N2059   N    0.14732   0.66730   0.51647   1.000
    O2060   O    0.12941   0.68460   0.52933   1.000
    O2061   O    0.16268   0.64725   0.50096   1.000
    N2062   N    0.58326   0.26554   0.85254   1.000
    N2063   N    0.08326   0.76554   0.85254   1.000
    N2064   N    0.41674   0.73446   0.85254   1.000
    N2065   N    0.19120   0.33970   0.84440   1.000
    O2066   O    0.20967   0.36205   0.83632   1.000
    N2067   N    0.80880   0.66030   0.84440   1.000
    O2068   O    0.79033   0.63795   0.83632   1.000
    N2069   N    0.69120   0.83970   0.84440   1.000
    O2070   O    0.70967   0.86205   0.83632   1.000
    N2071   N    0.41224   0.19762   0.89826   1.000
    N2072   N    0.58776   0.80238   0.89826   1.000
    N2073   N    0.00130   0.71545   0.87953   1.000
    O2074   O    0.00090   0.71888   0.84699   1.000
    O2075   O    0.00142   0.71642   0.91244   1.000
    N2076   N    0.49870   0.78455   0.87953   1.000
    O2077   O    0.49857   0.78357   0.91244   1.000
    O2078   O    0.49910   0.78112   0.84699   1.000
    N2079   N    0.99870   0.28455   0.87953   1.000
    O2080   O    0.99857   0.28358   0.91244   1.000
    O2081   O    0.99910   0.28113   0.84699   1.000
    N2082   N    0.50130   0.21545   0.87953   1.000
    O2083   O    0.50090   0.21888   0.84699   1.000
    O2084   O    0.50143   0.21643   0.91244   1.000
    N2085   N    0.25000   0.25000   0.74470   1.000
    N2086   N    0.64732   0.16730   0.51647   1.000
    O2087   O    0.66268   0.14725   0.50096   1.000
    O2088   O    0.62941   0.18460   0.52933   1.000
    N2089   N    0.10521   0.43112   0.01240   1.000
    O2090   O    0.12327   0.44441   0.99508   1.000
    O2091   O    0.08954   0.41318   0.03135   1.000
    N2092   N    0.35521   0.81888   0.26240   1.000
    O2093   O    0.37327   0.80559   0.24508   1.000
    O2094   O    0.33954   0.83682   0.28135   1.000
    N2095   N    0.35268   0.33270   0.01647   1.000
    O2096   O    0.37059   0.31540   0.02933   1.000
    O2097   O    0.33732   0.35275   0.00096   1.000
    N2098   N    0.85268   0.33270   0.51647   1.000
    O2099   O    0.87059   0.31540   0.52933   1.000
    O2100   O    0.83732   0.35275   0.50096   1.000
    N2101   N    0.32333   0.72480   0.12783   1.000
    N2102   N    0.25483   0.67430   0.90143   1.000
    O2103   O    0.26241   0.64157   0.91496   1.000
    N2104   N    0.92920   0.98990   0.88270   1.000
    N2105   N    0.47825   0.91835   0.96390   1.000
    N2106   N    0.83776   0.94762   0.64826   1.000
    N2107   N    0.95237   0.91240   0.04850   1.000
    O2108   O    0.96618   0.87643   0.05180   1.000
    N2109   N    0.39688   0.59943   0.98568   1.000
    O2110   O    0.41222   0.61857   0.00229   1.000
    O2111   O    0.37867   0.58317   0.97167   1.000
    N2112   N    0.47825   0.41835   0.46390   1.000
    N2113   N    0.85521   0.81888   0.76240   1.000
    O2114   O    0.87327   0.80559   0.74508   1.000
    O2115   O    0.83954   0.83682   0.78135   1.000
    N2116   N    0.69937   0.82255   0.94762   1.000
    O2117   O    0.71374   0.86230   0.95114   1.000
    N2118   N    0.00483   0.57570   0.65143   1.000
    O2119   O    0.01241   0.60843   0.66496   1.000
    N2120   N    0.42667   0.97480   0.87783   1.000
    N2121   N    0.08776   0.80238   0.39826   1.000
    N2122   N    0.32333   0.22480   0.62783   1.000
    N2123   N    0.64688   0.15057   0.73568   1.000
    O2124   O    0.62867   0.16683   0.72167   1.000
    O2125   O    0.66222   0.13143   0.75229   1.000
    N2126   N    0.00270   0.54240   0.28090   1.000
    N2127   N    0.49730   0.45760   0.78090   1.000
    N2128   N    0.39688   0.09943   0.48568   1.000
    O2129   O    0.37867   0.08317   0.47167   1.000
    O2130   O    0.41222   0.11857   0.50229   1.000
    N2131   N    0.67667   0.27520   0.12783   1.000
    N2132   N    0.60521   0.93112   0.01240   1.000
    O2133   O    0.58954   0.91318   0.03135   1.000
    O2134   O    0.62327   0.94441   0.99508   1.000
    N2135   N    0.85521   0.31888   0.26240   1.000
    O2136   O    0.87327   0.30559   0.24508   1.000
    O2137   O    0.83954   0.33682   0.28135   1.000
    N2138   N    0.19937   0.32255   0.94762   1.000
    O2139   O    0.21374   0.36230   0.95114   1.000
    N2140   N    0.72825   0.33165   0.21390   1.000
    N2141   N    0.39472   0.08722   0.75533   1.000
    O2142   O    0.41018   0.10361   0.73627   1.000
    O2143   O    0.37736   0.07451   0.77282   1.000
    N2144   N    0.80063   0.67745   0.94762   1.000
    O2145   O    0.78626   0.63770   0.95114   1.000
    N2146   N    0.75483   0.17430   0.90143   1.000
    O2147   O    0.76241   0.14157   0.91496   1.000
    N2148   N    0.10268   0.91730   0.76647   1.000
    O2149   O    0.08732   0.89725   0.75096   1.000
    O2150   O    0.12059   0.93460   0.77933   1.000
    N2151   N    0.97825   0.91835   0.46390   1.000
    N2152   N    0.05063   0.57255   0.19762   1.000
    O2153   O    0.03626   0.61230   0.20114   1.000
    N2154   N    0.94937   0.42745   0.19762   1.000
    O2155   O    0.96374   0.38770   0.20114   1.000
    N2156   N    0.16224   0.05238   0.64826   1.000
    N2157   N    0.39732   0.58270   0.76647   1.000
    O2158   O    0.37941   0.56540   0.77933   1.000
    O2159   O    0.41268   0.60275   0.75096   1.000
    N2160   N    0.39479   0.06888   0.01240   1.000
    O2161   O    0.41046   0.08682   0.03135   1.000
    O2162   O    0.37673   0.05559   0.99508   1.000
    N2163   N    0.07333   0.52520   0.87783   1.000
    N2164   N    0.64732   0.66730   0.01647   1.000
    O2165   O    0.66268   0.64725   0.00096   1.000
    O2166   O    0.62941   0.68460   0.02933   1.000
    N2167   N    0.35521   0.31888   0.76240   1.000
    O2168   O    0.37327   0.30559   0.74508   1.000
    O2169   O    0.33954   0.33682   0.78135   1.000
    N2170   N    0.24517   0.82570   0.90143   1.000
    O2171   O    0.23759   0.85843   0.91496   1.000
    N2172   N    0.49960   0.89250   0.40850   1.000
    N2173   N    0.04763   0.08760   0.04850   1.000
    O2174   O    0.03382   0.12357   0.05180   1.000
    N2175   N    0.39732   0.08270   0.26647   1.000
    O2176   O    0.41268   0.10275   0.25096   1.000
    O2177   O    0.37941   0.06540   0.27933   1.000
    N2178   N    0.80063   0.17745   0.44762   1.000
    O2179   O    0.78626   0.13770   0.45114   1.000
    N2180   N    0.00040   0.60750   0.40850   1.000
    N2181   N    0.67920   0.76010   0.13270   1.000
    N2182   N    0.50483   0.07570   0.65143   1.000
    O2183   O    0.51241   0.10843   0.66496   1.000
    N2184   N    0.79763   0.66240   0.29850   1.000
    O2185   O    0.78382   0.62643   0.30180   1.000
    N2186   N    0.02175   0.58165   0.96390   1.000
    N2187   N    0.35312   0.84943   0.73568   1.000
    O2188   O    0.33778   0.86857   0.75229   1.000
    O2189   O    0.37133   0.83317   0.72167   1.000
    N2190   N    0.30063   0.17745   0.94762   1.000
    O2191   O    0.28626   0.13770   0.95114   1.000
    N2192   N    0.99517   0.92430   0.15143   1.000
    O2193   O    0.98759   0.89157   0.16496   1.000
    N2194   N    0.25040   0.14250   0.15850   1.000
    N2195   N    0.50000   0.00000   0.77851   1.000
    N2196   N    0.14479   0.18112   0.76240   1.000
    O2197   O    0.16046   0.16318   0.78135   1.000
    O2198   O    0.12673   0.19441   0.74508   1.000
    N2199   N    0.24730   0.79240   0.53090   1.000
    N2200   N    0.42667   0.47480   0.37783   1.000
    N2201   N    0.64479   0.68112   0.76240   1.000
    O2202   O    0.66046   0.66318   0.78135   1.000
    O2203   O    0.62673   0.69441   0.74508   1.000
    N2204   N    0.64688   0.65057   0.23568   1.000
    O2205   O    0.62867   0.66683   0.22167   1.000
    O2206   O    0.66222   0.63143   0.25229   1.000
    N2207   N    0.75040   0.64250   0.15850   1.000
    N2208   N    0.85312   0.34943   0.73568   1.000
    O2209   O    0.83778   0.36857   0.75229   1.000
    O2210   O    0.87133   0.33317   0.72167   1.000
    N2211   N    0.83326   0.48446   0.60254   1.000
    N2212   N    0.50483   0.57570   0.15143   1.000
    O2213   O    0.51241   0.60843   0.16496   1.000
    N2214   N    0.49870   0.28455   0.37953   1.000
    O2215   O    0.49910   0.28113   0.34699   1.000
    O2216   O    0.49858   0.28358   0.41244   1.000
    N2217   N    0.00483   0.07570   0.15143   1.000
    O2218   O    0.01241   0.10843   0.16496   1.000
    N2219   N    0.74960   0.35750   0.65850   1.000
    N2220   N    0.44120   0.91030   0.09440   1.000
    O2221   O    0.45967   0.88795   0.08632   1.000
    N2222   N    0.81250   0.64650   0.14450   1.000
    N2223   N    0.49517   0.92430   0.65143   1.000
    O2224   O    0.48759   0.89157   0.66496   1.000
    N2225   N    0.85312   0.84943   0.23568   1.000
    O2226   O    0.87133   0.83317   0.22167   1.000
    O2227   O    0.83778   0.86857   0.25229   1.000
    N2228   N    0.60312   0.90057   0.48568   1.000
    O2229   O    0.58778   0.88143   0.50229   1.000
    O2230   O    0.62133   0.91683   0.47167   1.000
    N2231   N    0.31250   0.14650   0.14450   1.000
    N2232   N    0.58326   0.76554   0.35254   1.000
    N2233   N    0.30880   0.66030   0.34440   1.000
    O2234   O    0.29033   0.63795   0.33632   1.000
    N2235   N    0.60521   0.43112   0.51240   1.000
    O2236   O    0.62327   0.44441   0.49508   1.000
    O2237   O    0.58954   0.41318   0.53135   1.000
    N2238   N    0.08326   0.26554   0.35254   1.000
    N2239   N    0.68750   0.85350   0.14450   1.000
    N2240   N    0.25040   0.64250   0.65850   1.000
    N2241   N    0.35312   0.34943   0.23568   1.000
    O2242   O    0.37133   0.33317   0.22167   1.000
    O2243   O    0.33778   0.36857   0.25229   1.000
    N2244   N    0.17667   0.27520   0.62783   1.000
    N2245   N    0.14688   0.65057   0.73568   1.000
    O2246   O    0.16222   0.63143   0.75229   1.000
    O2247   O    0.12867   0.66683   0.72167   1.000
    N2248   N    0.85528   0.33722   0.00533   1.000
    O2249   O    0.87264   0.32451   0.02282   1.000
    O2250   O    0.83982   0.35361   0.98627   1.000
    N2251   N    0.24730   0.29240   0.03090   1.000
    N2252   N    0.56250   0.10350   0.39450   1.000
    N2253   N    0.66674   0.51554   0.10254   1.000
    N2254   N    0.82333   0.22480   0.12783   1.000
    N2255   N    0.50000   0.50000   0.27851   1.000
    N2256   N    0.33326   0.98446   0.60254   1.000
    N2257   N    0.89688   0.09943   0.98568   1.000
    O2258   O    0.87867   0.08317   0.97167   1.000
    O2259   O    0.91222   0.11857   0.00229   1.000
    N2260   N    0.44937   0.92745   0.19762   1.000
    O2261   O    0.46374   0.88770   0.20114   1.000
    N2262   N    0.24960   0.35750   0.15850   1.000
    N2263   N    0.68750   0.35350   0.64450   1.000
    N2264   N    0.75270   0.70760   0.03090   1.000
    N2265   N    0.45237   0.41240   0.04850   1.000
    O2266   O    0.46618   0.37643   0.05180   1.000
    N2267   N    0.55063   0.57255   0.69762   1.000
    O2268   O    0.53626   0.61230   0.70114   1.000
    N2269   N    0.69120   0.33970   0.34440   1.000
    O2270   O    0.70967   0.36205   0.33632   1.000
    N2271   N    0.00270   0.04240   0.78090   1.000
    N2272   N    0.17667   0.77520   0.12783   1.000
    N2273   N    0.05880   0.58970   0.09440   1.000
    O2274   O    0.04033   0.61205   0.08632   1.000
    N2275   N    0.75270   0.20760   0.53090   1.000
    N2276   N    0.94120   0.41030   0.09440   1.000
    O2277   O    0.95967   0.38795   0.08632   1.000
    N2278   N    0.20237   0.83760   0.79850   1.000
    O2279   O    0.21618   0.87357   0.80180   1.000
    N2280   N    0.74517   0.82570   0.40143   1.000
    O2281   O    0.73759   0.85843   0.41496   1.000
    N2282   N    0.14688   0.15057   0.23568   1.000
    O2283   O    0.12867   0.16683   0.22167   1.000
    O2284   O    0.16222   0.13143   0.25229   1.000
    N2285   N    0.49960   0.39250   0.90850   1.000
    N2286   N    0.25483   0.17430   0.40143   1.000
    O2287   O    0.26241   0.14157   0.41496   1.000
    N2288   N    0.24960   0.85750   0.65850   1.000
    N2289   N    0.93750   0.89650   0.89450   1.000
    N2290   N    0.60528   0.91278   0.75533   1.000
    O2291   O    0.58982   0.89639   0.73627   1.000
    O2292   O    0.62264   0.92549   0.77282   1.000
    N2293   N    0.81250   0.14650   0.64450   1.000
    N2294   N    0.92920   0.48990   0.38270   1.000
    N2295   N    0.60268   0.41730   0.76647   1.000
    O2296   O    0.58732   0.39725   0.75096   1.000
    O2297   O    0.62059   0.43460   0.77933   1.000
    N2298   N    0.42920   0.98990   0.38270   1.000
    N2299   N    0.82333   0.72480   0.62783   1.000
    N2300   N    0.55880   0.08970   0.09440   1.000
    O2301   O    0.54033   0.11205   0.08632   1.000
    N2302   N    0.67920   0.26010   0.63270   1.000
    N2303   N    0.20237   0.33760   0.29850   1.000
    O2304   O    0.21618   0.37357   0.30180   1.000
    N2305   N    0.24517   0.32570   0.40143   1.000
    O2306   O    0.23759   0.35843   0.41496   1.000
    N2307   N    0.29763   0.16240   0.29850   1.000
    O2308   O    0.28382   0.12643   0.30180   1.000
    N2309   N    0.56250   0.60350   0.89450   1.000
    N2310   N    0.07080   0.51010   0.38270   1.000
    N2311   N    0.74517   0.32570   0.90143   1.000
    O2312   O    0.73759   0.35843   0.91496   1.000
    N2313   N    0.74730   0.79240   0.03090   1.000
    N2314   N    0.94937   0.92745   0.69762   1.000
    O2315   O    0.96374   0.88770   0.70114   1.000
    N2316   N    0.75000   0.25000   0.24470   1.000
    N2317   N    0.66674   0.01554   0.60254   1.000
    N2318   N    0.43750   0.39650   0.89450   1.000
    N2319   N    0.91674   0.73446   0.35254   1.000
    N2320   N    0.49517   0.42430   0.15143   1.000
    O2321   O    0.48759   0.39157   0.16496   1.000
    N2322   N    0.18750   0.35350   0.14450   1.000
    N2323   N    0.06250   0.10350   0.89450   1.000
    N2324   N    0.16674   0.51554   0.60254   1.000
    N2325   N    0.00000   0.00000   0.27851   1.000
    N2326   N    0.52175   0.58165   0.46390   1.000
    N2327   N    0.74730   0.29240   0.53090   1.000
    N2328   N    0.32080   0.73990   0.63270   1.000
    N2329   N    0.57080   0.01010   0.38270   1.000
    N2330   N    0.50270   0.04240   0.28090   1.000
    N2331   N    0.70237   0.33760   0.79850   1.000
    O2332   O    0.71618   0.37357   0.80180   1.000
    N2333   N    0.07333   0.02520   0.37783   1.000
    N2334   N    0.99730   0.45760   0.28090   1.000
    N2335   N    0.22825   0.83165   0.21390   1.000
    N2336   N    0.25270   0.20760   0.03090   1.000
    N2337   N    0.57333   0.52520   0.37783   1.000
    N2338   N    0.18750   0.85350   0.64450   1.000
    N2339   N    0.29763   0.66240   0.79850   1.000
    O2340   O    0.28382   0.62643   0.80180   1.000
    N2341   N    0.49730   0.95760   0.28090   1.000
    N2342   N    0.00040   0.10750   0.90850   1.000
    N2343   N    0.42920   0.48990   0.88270   1.000
    N2344   N    0.93750   0.39650   0.39450   1.000
    N2345   N    0.52175   0.08165   0.96390   1.000
    N2346   N    0.50040   0.60750   0.90850   1.000
    N2347   N    0.77175   0.16835   0.21390   1.000
    N2348   N    0.82080   0.73990   0.13270   1.000
    N2349   N    0.27175   0.66835   0.21390   1.000
    N2350   N    0.50000   0.00000   0.99470   1.000
    N2351   N    0.77175   0.66835   0.71390   1.000
    N2352   N    0.50040   0.10750   0.40850   1.000
    N2353   N    0.57080   0.51010   0.88270   1.000
    N2354   N    0.31250   0.64650   0.64450   1.000
    N2355   N    0.17920   0.76010   0.63270   1.000
    N2356   N    0.22825   0.33165   0.71390   1.000
    N2357   N    0.99730   0.95760   0.78090   1.000
    N2358   N    0.25000   0.75000   0.24470   1.000
    N2359   N    0.82080   0.23990   0.63270   1.000
    N2360   N    0.97825   0.41835   0.96390   1.000
    N2361   N    0.50000   0.50000   0.49470   1.000
    N2362   N    0.25270   0.70760   0.53090   1.000
    N2363   N    0.07080   0.01010   0.88270   1.000
    N2364   N    0.17920   0.26010   0.13270   1.000
    N2365   N    0.00000   0.50000   0.99470   1.000
    N2366   N    0.32080   0.23990   0.13270   1.000
    N2367   N    0.50270   0.54240   0.78090   1.000
loop_
    _geom_bond_atom_site_label_1
    _geom_bond_atom_site_label_2
    _geom_bond_distance
    _geom_bond_site_symmetry_2
    _ccdc_geom_bond_type
    Zr278  O768      0.64194      .   S
    Zr758  O768      0.64194      .   S
    Zr278  O769      1.08709  1_554   S
    Zr107  O769      1.08709      .   S
    Zr279  O770      0.64194      .   S
    Zr759  O770      0.64194      .   S
    Zr279  O771      1.08709  1_554   S
    Zr106  O771      1.08709      .   S
    Zr282  O772      0.64194      .   S
    Zr762  O772      0.64194      .   S
    Zr282  O773      1.08709  1_554   S
    Zr95   O773      1.08709      .   S
    Zr283  O774      0.64194      .   S
    Zr763  O774      0.64194      .   S
    Zr283  O775      1.08709  1_554   S
    Zr94   O775      1.08709      .   S
    Zr536  O776      0.63049      .   S
    Zr731  O776      0.63049      .   S
    Zr536  O777      1.12249      .   S
    Zr71   O777      1.12249  1_455   S
    Zr535  O778      0.63049      .   S
    Zr730  O778      0.63049      .   S
    Zr535  O779      1.12249      .   S
    Zr70   O779      1.12249  1_655   S
    Zr532  O780      0.63049      .   S
    Zr727  O780      0.63049      .   S
    Zr532  O781      1.12249      .   S
    Zr67   O781      1.12249      .   S
    Zr531  O782      0.63049      .   S
    Zr726  O782      0.63049      .   S
    Zr531  O783      1.12249      .   S
    Zr66   O783      1.12249      .   S
    Zr433  O784      0.63920      .   S
    Zr763  O784      0.63920  1_565   S
    Zr432  O785      0.63920      .   S
    Zr762  O785      0.63920      .   S
    Zr429  O786      0.63920      .   S
    Zr759  O786      0.63920      .   S
    Zr428  O787      0.63920      .   S
    Zr758  O787      0.63920  1_545   S
    Zr712  O788      0.50080      .   S
    Zr697  O788      0.50080      .   S
    Zr716  O789      0.50080      .   S
    Zr701  O789      0.50080      .   S
    Zr711  O790      0.50080      .   S
    Zr696  O790      0.50080      .   S
    Zr715  O791      0.50080      .   S
    Zr700  O791      0.50080      .   S
    Zr229  O792      0.63386      .   S
    Zr544  O792      0.63386      .   S
    Zr242  O793      0.63386      .   S
    Zr557  O793      0.63386      .   S
    Zr241  O794      0.63386      .   S
    Zr556  O794      0.63386      .   S
    Zr230  O795      0.63386      .   S
    Zr545  O795      0.63386      .   S
    Zr726  O796      0.63764      .   S
    Zr456  O796      0.63764      .   S
    Zr727  O797      0.63764      .   S
    Zr457  O797      0.63764      .   S
    Zr730  O798      0.63764      .   S
    Zr460  O798      0.63764      .   S
    Zr731  O799      0.63764      .   S
    Zr461  O799      0.63764      .   S
    Zr409  O800      0.62657      .   S
    Zr514  O800      0.62657      .   S
    Zr421  O801      0.62657      .   S
    Zr526  O801      0.62657      .   S
    Zr422  O802      0.62657      .   S
    Zr527  O802      0.62657      .   S
    Zr410  O803      0.62657      .   S
    Zr515  O803      0.62657      .   S
    Zr544  O804      0.63070      .   S
    Zr214  O804      0.63070      .   S
    Zr545  O805      0.63070      .   S
    Zr215  O805      0.63070      .   S
    Zr556  O806      0.63070      .   S
    Zr226  O806      0.63070      .   S
    Zr557  O807      0.63070      .   S
    Zr227  O807      0.63070      .   S
    Zr527  O808      0.63641      .   S
    Zr182  O808      0.63641      .   S
    Zr526  O809      0.63641      .   S
    Zr181  O809      0.63641      .   S
    Zr515  O810      0.63641      .   S
    Zr170  O810      0.63641      .   S
    Zr514  O811      0.63641      .   S
    Zr169  O811      0.63641      .   S
    Zr746  O812      0.62718      .   S
    Zr566  O812      0.62718      .   S
    Zr741  O813      0.62718      .   S
    Zr561  O813      0.62718      .   S
    Zr742  O814      0.62718      .   S
    Zr562  O814      0.62718      .   S
    Zr745  O815      0.62718      .   S
    Zr565  O815      0.62718      .   S
    Zr71   O816      1.11527      .   S
    Zr701  O816      1.11527      .   S
    Zr71   O817      1.02309  1_455   S
    Zr656  O817      1.02309      .   S
    Zr70   O818      1.11527      .   S
    Zr700  O818      1.11527      .   S
    Zr70   O819      1.02309  1_655   S
    Zr655  O819      1.02309      .   S
    Zr67   O820      1.11527      .   S
    Zr697  O820      1.11527      .   S
    Zr67   O821      1.02309      .   S
    Zr652  O821      1.02309      .   S
    Zr66   O822      1.11527      .   S
    Zr696  O822      1.11527      .   S
    Zr66   O823      1.02309      .   S
    Zr651  O823      1.02309      .   S
    Zr566  O824      0.63083      .   S
    Zr341  O824      0.63083      .   S
    Zr565  O825      0.63083      .   S
    Zr340  O825      0.63083      .   S
    Zr562  O826      0.63083      .   S
    Zr337  O826      0.63083      .   S
    Zr561  O827      0.63083      .   S
    Zr336  O827      0.63083      .   S
    Zr456  O828      1.10572      .   S
    Zr126  O828      1.10572      .   S
    Zr457  O829      1.10572      .   S
    Zr127  O829      1.10572      .   S
    Zr460  O830      1.10572      .   S
    Zr130  O830      1.10572      .   S
    Zr461  O831      1.10572      .   S
    Zr131  O831      1.10572      .   S
    Zr115  O832      1.11893      .   S
    Zr670  O832      1.11893      .   S
    Zr115  O833      1.03669  1_455   S
    Zr160  O833      1.03669      .   S
    Zr115  O834      1.09931      .   S
    Zr400  O834      1.09931  1_556   S
    Zr111  O835      1.11893      .   S
    Zr666  O835      1.11893      .   S
    Zr111  O836      1.03669      .   S
    Zr156  O836      1.03669      .   S
    Zr111  O837      1.09931      .   S
    Zr396  O837      1.09931  1_556   S
    Zr112  O838      1.11893      .   S
    Zr667  O838      1.11893      .   S
    Zr112  O839      1.03669      .   S
    Zr157  O839      1.03669      .   S
    Zr112  O840      1.09931      .   S
    Zr397  O840      1.09931  1_556   S
    Zr116  O841      1.11893      .   S
    Zr671  O841      1.11893      .   S
    Zr116  O842      1.03669  1_655   S
    Zr161  O842      1.03669      .   S
    Zr116  O843      1.09931      .   S
    Zr401  O843      1.09931  1_556   S
    Zr656  O844      1.01682      .   S
    Zr131  O844      1.01682      .   S
    Zr655  O845      1.01682      .   S
    Zr130  O845      1.01682      .   S
    Zr652  O846      1.01682      .   S
    Zr127  O846      1.01682      .   S
    Zr651  O847      1.01682      .   S
    Zr126  O847      1.01682      .   S
    Zr227  O848      1.11081      .   S
    Zr85   O848      1.11081      .   S
    Zr226  O849      1.11081      .   S
    Zr82   O849      1.11081      .   S
    Zr215  O850      1.11081      .   S
    Zr81   O850      1.11081      .   S
    Zr214  O851      1.11081      .   S
    Zr86   O851      1.11081      .   S
    Zr169  O852      1.09218      .   S
    Zr127  O852      1.09218      .   S
    Zr182  O853      1.09218      .   S
    Zr126  O853      1.09218      .   S
    Zr181  O854      1.09218      .   S
    Zr131  O854      1.09218      .   S
    Zr170  O855      1.09218      .   S
    Zr130  O855      1.09218      .   S
    Zr336  O856      1.10477      .   S
    Zr81   O856      1.10477      .   S
    Zr337  O857      1.10477      .   S
    Zr82   O857      1.10477      .   S
    Zr340  O858      1.10477      .   S
    Zr85   O858      1.10477      .   S
    Zr341  O859      1.10477      .   S
    Zr86   O859      1.10477      .   S
    Zr205  O860      0.49995      .   S
    Zr190  O860      0.49995      .   S
    Zr202  O861      0.49995      .   S
    Zr187  O861      0.49995      .   S
    Zr201  O862      0.49995      .   S
    Zr186  O862      0.49995      .   S
    Zr206  O863      0.49995      .   S
    Zr191  O863      0.49995      .   S
    Zr187  O864      1.11420      .   S
    Zr97   O864      1.11420      .   S
    Zr190  O865      1.11420      .   S
    Zr100  O865      1.11420  1_655   S
    Zr186  O866      1.11420      .   S
    Zr96   O866      1.11420      .   S
    Zr191  O867      1.11420      .   S
    Zr101  O867      1.11420  1_455   S
    Zr142  O868      1.03564      .   S
    Zr82   O868      1.03564      .   S
    Zr142  O869      1.03380      .   S
    Zr97   O869      1.03380      .   S
    Zr141  O870      1.03564      .   S
    Zr81   O870      1.03564      .   S
    Zr141  O871      1.03380      .   S
    Zr96   O871      1.03380      .   S
    Zr145  O872      1.03564      .   S
    Zr85   O872      1.03564      .   S
    Zr145  O873      1.03380      .   S
    Zr100  O873      1.03380      .   S
    Zr146  O874      1.03564      .   S
    Zr86   O874      1.03564      .   S
    Zr146  O875      1.03380      .   S
    Zr101  O875      1.03380      .   S
    Zr131  O876      1.10126      .   S
    Zr296  O876      1.10126      .   S
    Zr131  O877      1.10693      .   S
    Zr309  O877      1.10693      .   S
    Zr131  O878      1.01980      .   S
    Zr641  O878      1.01980      .   S
    Zr130  O879      1.10126      .   S
    Zr295  O879      1.10126      .   S
    Zr130  O880      1.10693      .   S
    Zr312  O880      1.10693      .   S
    Zr130  O881      1.01980      .   S
    Zr640  O881      1.01980      .   S
    Zr127  O882      1.10126      .   S
    Zr292  O882      1.10126      .   S
    Zr127  O883      1.10693      .   S
    Zr313  O883      1.10693      .   S
    Zr127  O884      1.01980      .   S
    Zr637  O884      1.01980      .   S
    Zr126  O885      1.10126      .   S
    Zr291  O885      1.10126      .   S
    Zr126  O886      1.10693      .   S
    Zr308  O886      1.10693      .   S
    Zr126  O887      1.01980      .   S
    Zr636  O887      1.01980      .   S
    Zr86   O888      1.03548      .   S
    Zr161  O888      1.03548      .   S
    Zr86   O889      1.10936      .   S
    Zr268  O889      1.10936      .   S
    Zr86   O890      1.10108      .   S
    Zr446  O890      1.10108      .   S
    Zr85   O891      1.03548      .   S
    Zr160  O891      1.03548      .   S
    Zr85   O892      1.10936      .   S
    Zr263  O892      1.10936      .   S
    Zr85   O893      1.10108      .   S
    Zr445  O893      1.10108      .   S
    Zr81   O894      1.03548      .   S
    Zr156  O894      1.03548      .   S
    Zr81   O895      1.10936      .   S
    Zr267  O895      1.10936      .   S
    Zr81   O896      1.10108      .   S
    Zr441  O896      1.10108      .   S
    Zr82   O897      1.03548      .   S
    Zr157  O897      1.03548      .   S
    Zr82   O898      1.10936      .   S
    Zr264  O898      1.10936      .   S
    Zr82   O899      1.10108      .   S
    Zr442  O899      1.10108      .   S
    Zr671  O900      0.50026      .   S
    Zr686  O900      0.50026      .   S
    Zr667  O901      0.50026      .   S
    Zr682  O901      0.50026      .   S
    Zr670  O902      0.50026      .   S
    Zr685  O902      0.50026      .   S
    Zr666  O903      0.50026      .   S
    Zr681  O903      0.50026      .   S
    Zr291  O904      0.63871      .   S
    Zr486  O904      0.63871      .   S
    Zr292  O905      0.63871      .   S
    Zr487  O905      0.63871      .   S
    Zr295  O906      0.63871      .   S
    Zr490  O906      0.63871      .   S
    Zr296  O907      0.63871      .   S
    Zr491  O907      0.63871      .   S
    Zr268  O908      0.63156      .   S
    Zr598  O908      0.63156      .   S
    Zr267  O909      0.63156      .   S
    Zr597  O909      0.63156      .   S
    Zr263  O910      0.63156      .   S
    Zr593  O910      0.63156      .   S
    Zr264  O911      0.63156      .   S
    Zr594  O911      0.63156      .   S
    Zr308  O912      0.63021      .   S
    Zr608  O912      0.63021      .   S
    Zr313  O913      0.63021      .   S
    Zr613  O913      0.63021      .   S
    Zr312  O914      0.63021      .   S
    Zr612  O914      0.63021      .   S
    Zr309  O915      0.63021      .   S
    Zr609  O915      0.63021      .   S
    Zr641  O916      1.02664      .   S
    Zr56   O916      1.02664      .   S
    Zr636  O917      1.02664      .   S
    Zr51   O917      1.02664      .   S
    Zr637  O918      1.02664      .   S
    Zr52   O918      1.02664      .   S
    Zr640  O919      1.02664      .   S
    Zr55   O919      1.02664      .   S
    Zr97   O920      1.11765      .   S
    Zr367  O920      1.11765      .   S
    Zr97   O921      1.08709      .   S
    Zr284  O921      1.08709      .   S
    Zr96   O922      1.11765      .   S
    Zr366  O922      1.11765      .   S
    Zr96   O923      1.08709      .   S
    Zr285  O923      1.08709      .   S
    Zr100  O924      1.11765      .   S
    Zr370  O924      1.11765      .   S
    Zr100  O925      1.08709      .   S
    Zr273  O925      1.08709      .   S
    Zr101  O926      1.11765      .   S
    Zr371  O926      1.11765      .   S
    Zr101  O927      1.08709      .   S
    Zr15   O927      1.08709      .   S
    Zr441  O928      0.62557      .   S
    Zr576  O928      0.62557      .   S
    Zr442  O929      0.62557      .   S
    Zr577  O929      0.62557      .   S
    Zr445  O930      0.62557      .   S
    Zr580  O930      0.62557      .   S
    Zr446  O931      0.62557      .   S
    Zr581  O931      0.62557      .   S
    Zr594  O932      0.63432      .   S
    Zr324  O932      0.63432      .   S
    Zr598  O933      0.63432      .   S
    Zr328  O933      0.63432      .   S
    Zr597  O934      0.63432      .   S
    Zr327  O934      0.63432      .   S
    Zr593  O935      0.63432      .   S
    Zr323  O935      0.63432      .   S
    Zr486  O936      0.62089      .   S
    Zr351  O936      0.62089      .   S
    Zr487  O937      0.62089      .   S
    Zr352  O937      0.62089      .   S
    Zr491  O938      0.62089      .   S
    Zr356  O938      0.62089      .   S
    Zr490  O939      0.62089      .   S
    Zr355  O939      0.62089      .   S
    Zr52   O940      1.12542      .   S
    Zr472  O940      1.12542      .   S
    Zr56   O941      1.12542  1_655   S
    Zr476  O941      1.12542      .   S
    Zr55   O942      1.12542  1_455   S
    Zr475  O942      1.12542      .   S
    Zr51   O943      1.12542      .   S
    Zr471  O943      1.12542      .   S
    Zr366  O944      0.49897      .   S
    Zr381  O944      0.49897      .   S
    Zr367  O945      0.49897      .   S
    Zr382  O945      0.49897      .   S
    Zr370  O946      0.49897      .   S
    Zr385  O946      0.49897      .   S
    Zr371  O947      0.49897      .   S
    Zr386  O947      0.49897      .   S
    Zr609  O948      0.62882      .   S
    Zr249  O948      0.62882      .   S
    Zr613  O949      0.62882      .   S
    Zr253  O949      0.62882      .   S
    Zr612  O950      0.62882      .   S
    Zr252  O950      0.62882      .   S
    Zr608  O951      0.62882      .   S
    Zr248  O951      0.62882      .   S
    Zr577  O952      0.62937      .   S
    Zr472  O952      0.62937      .   S
    Zr581  O953      0.62937      .   S
    Zr476  O953      0.62937      .   S
    Zr576  O954      0.62937      .   S
    Zr471  O954      0.62937      .   S
    Zr580  O955      0.62937      .   S
    Zr475  O955      0.62937      .   S
    Zr628  O956      0.64385      .   S
    Zr508  O956      0.64385  1_545   S
    Zr628  O957      0.64134      .   S
    Zr403  O957      0.64134      .   S
    Zr624  O958      0.64385      .   S
    Zr504  O958      0.64385      .   S
    Zr624  O959      0.64134      .   S
    Zr399  O959      0.64134      .   S
    Zr623  O960      0.64385      .   S
    Zr503  O960      0.64385  1_565   S
    Zr623  O961      0.64134      .   S
    Zr398  O961      0.64134      .   S
    Zr627  O962      0.64385      .   S
    Zr507  O962      0.64385      .   S
    Zr627  O963      0.64134      .   S
    Zr402  O963      0.64134      .   S
    Zr399  O964      1.09931      .   S
    Zr114  O964      1.09931      .   S
    Zr402  O965      1.09931      .   S
    Zr117  O965      1.09931      .   S
    Zr403  O966      1.09931      .   S
    Zr118  O966      1.09931      .   S
    Zr398  O967      1.09931      .   S
    Zr113  O967      1.09931      .   S
    Zr15   O968      0.64194      .   S
    Zr47   O968      0.64194  1_655   S
    Zr285  O969      0.64194      .   S
    Zr765  O969      0.64194      .   S
    Zr284  O970      0.64194      .   S
    Zr764  O970      0.64194      .   S
    Zr273  O971      0.64194      .   S
    Zr753  O971      0.64194  1_455   S
    Zr537  O972      0.63049      .   S
    Zr732  O972      0.63049      .   S
    Zr537  O973      1.12249      .   S
    Zr72   O973      1.12249      .   S
    Zr534  O974      0.63049      .   S
    Zr729  O974      0.63049      .   S
    Zr534  O975      1.12249      .   S
    Zr69   O975      1.12249      .   S
    Zr533  O976      0.63049      .   S
    Zr728  O976      0.63049      .   S
    Zr533  O977      1.12249      .   S
    Zr68   O977      1.12249      .   S
    Zr538  O978      0.63049      .   S
    Zr733  O978      0.63049      .   S
    Zr538  O979      1.12249      .   S
    Zr73   O979      1.12249      .   S
    Zr25   O980      0.63920      .   S
    Zr47   O980      0.63920      .   S
    Zr423  O981      0.63920      .   S
    Zr753  O981      0.63920      .   S
    Zr434  O982      0.63920      .   S
    Zr764  O982      0.63920      .   S
    Zr435  O983      0.63920      .   S
    Zr765  O983      0.63920      .   S
    Zr713  O984      0.50080      .   S
    Zr698  O984      0.50080      .   S
    Zr714  O985      0.50080      .   S
    Zr699  O985      0.50080      .   S
    Zr717  O986      0.50080      .   S
    Zr702  O986      0.50080      .   S
    Zr718  O987      0.50080      .   S
    Zr703  O987      0.50080      .   S
    Zr732  O988      0.63764      .   S
    Zr462  O988      0.63764      .   S
    Zr728  O989      0.63764      .   S
    Zr458  O989      0.63764      .   S
    Zr729  O990      0.63764      .   S
    Zr459  O990      0.63764      .   S
    Zr733  O991      0.63764      .   S
    Zr463  O991      0.63764      .   S
    Zr231  O992      0.63386      .   S
    Zr546  O992      0.63386      .   S
    Zr232  O993      0.63386      .   S
    Zr547  O993      0.63386      .   S
    Zr235  O994      0.63386      .   S
    Zr550  O994      0.63386      .   S
    Zr236  O995      0.63386      .   S
    Zr551  O995      0.63386      .   S
    Zr412  O996      0.62657      .   S
    Zr517  O996      0.62657      .   S
    Zr411  O997      0.62657      .   S
    Zr516  O997      0.62657      .   S
    Zr415  O998      0.62657      .   S
    Zr520  O998      0.62657      .   S
    Zr416  O999      0.62657      .   S
    Zr521  O999      0.62657      .   S
    Zr550  O1000     0.63070      .   S
    Zr220  O1000     0.63070      .   S
    Zr547  O1001     0.63070      .   S
    Zr217  O1001     0.63070      .   S
    Zr546  O1002     0.63070      .   S
    Zr216  O1002     0.63070      .   S
    Zr551  O1003     0.63070      .   S
    Zr221  O1003     0.63070      .   S
    Zr516  O1004     0.63641      .   S
    Zr171  O1004     0.63641      .   S
    Zr520  O1005     0.63641      .   S
    Zr175  O1005     0.63641      .   S
    Zr517  O1006     0.63641      .   S
    Zr172  O1006     0.63641      .   S
    Zr521  O1007     0.63641      .   S
    Zr176  O1007     0.63641      .   S
    Zr747  O1008     0.62718      .   S
    Zr567  O1008     0.62718      .   S
    Zr748  O1009     0.62718      .   S
    Zr568  O1009     0.62718      .   S
    Zr744  O1010     0.62718      .   S
    Zr564  O1010     0.62718      .   S
    Zr743  O1011     0.62718      .   S
    Zr563  O1011     0.62718      .   S
    Zr68   O1012     1.11527      .   S
    Zr698  O1012     1.11527  1_545   S
    Zr68   O1013     1.02309      .   S
    Zr653  O1013     1.02309      .   S
    Zr69   O1014     1.11527      .   S
    Zr699  O1014     1.11527      .   S
    Zr69   O1015     1.02309      .   S
    Zr654  O1015     1.02309      .   S
    Zr72   O1016     1.11527      .   S
    Zr702  O1016     1.11527      .   S
    Zr72   O1017     1.02309      .   S
    Zr657  O1017     1.02309      .   S
    Zr73   O1018     1.11527      .   S
    Zr703  O1018     1.11527  1_565   S
    Zr73   O1019     1.02309      .   S
    Zr658  O1019     1.02309      .   S
    Zr564  O1020     0.63083      .   S
    Zr339  O1020     0.63083      .   S
    Zr568  O1021     0.63083      .   S
    Zr343  O1021     0.63083      .   S
    Zr567  O1022     0.63083      .   S
    Zr342  O1022     0.63083      .   S
    Zr563  O1023     0.63083      .   S
    Zr338  O1023     0.63083      .   S
    Zr463  O1024     1.10572      .   S
    Zr133  O1024     1.10572      .   S
    Zr462  O1025     1.10572      .   S
    Zr132  O1025     1.10572      .   S
    Zr459  O1026     1.10572      .   S
    Zr129  O1026     1.10572      .   S
    Zr458  O1027     1.10572      .   S
    Zr128  O1027     1.10572      .   S
    Zr117  O1028     1.11893      .   S
    Zr672  O1028     1.11893      .   S
    Zr117  O1029     1.03669      .   S
    Zr162  O1029     1.03669      .   S
    Zr118  O1030     1.11893      .   S
    Zr673  O1030     1.11893      .   S
    Zr118  O1031     1.03669      .   S
    Zr163  O1031     1.03669      .   S
    Zr114  O1032     1.11893      .   S
    Zr669  O1032     1.11893      .   S
    Zr114  O1033     1.03669      .   S
    Zr159  O1033     1.03669      .   S
    Zr113  O1034     1.11893      .   S
    Zr668  O1034     1.11893      .   S
    Zr113  O1035     1.03669      .   S
    Zr158  O1035     1.03669      .   S
    Zr658  O1036     1.01682      .   S
    Zr133  O1036     1.01682      .   S
    Zr653  O1037     1.01682      .   S
    Zr128  O1037     1.01682      .   S
    Zr654  O1038     1.01682      .   S
    Zr129  O1038     1.01682      .   S
    Zr657  O1039     1.01682      .   S
    Zr132  O1039     1.01682      .   S
    Zr220  O1040     1.11081      .   S
    Zr84   O1040     1.11081      .   S
    Zr221  O1041     1.11081      .   S
    Zr87   O1041     1.11081      .   S
    Zr217  O1042     1.11081  1_565   S
    Zr83   O1042     1.11081      .   S
    Zr216  O1043     1.11081  1_545   S
    Zr88   O1043     1.11081      .   S
    Zr171  O1044     1.09218      .   S
    Zr129  O1044     1.09218      .   S
    Zr172  O1045     1.09218      .   S
    Zr132  O1045     1.09218      .   S
    Zr175  O1046     1.09218  1_565   S
    Zr133  O1046     1.09218      .   S
    Zr176  O1047     1.09218  1_545   S
    Zr128  O1047     1.09218      .   S
    Zr343  O1048     1.10477      .   S
    Zr88   O1048     1.10477      .   S
    Zr342  O1049     1.10477      .   S
    Zr87   O1049     1.10477      .   S
    Zr338  O1050     1.10477      .   S
    Zr83   O1050     1.10477      .   S
    Zr339  O1051     1.10477      .   S
    Zr84   O1051     1.10477      .   S
    Zr203  O1052     0.49995      .   S
    Zr188  O1052     0.49995      .   S
    Zr207  O1053     0.49995      .   S
    Zr192  O1053     0.49995      .   S
    Zr208  O1054     0.49995      .   S
    Zr193  O1054     0.49995      .   S
    Zr204  O1055     0.49995      .   S
    Zr189  O1055     0.49995      .   S
    Zr189  O1056     1.11420      .   S
    Zr99   O1056     1.11420      .   S
    Zr188  O1057     1.11420      .   S
    Zr98   O1057     1.11420      .   S
    Zr193  O1058     1.11420      .   S
    Zr103  O1058     1.11420      .   S
    Zr192  O1059     1.11420      .   S
    Zr102  O1059     1.11420      .   S
    Zr147  O1060     1.03564      .   S
    Zr87   O1060     1.03564      .   S
    Zr147  O1061     1.03380      .   S
    Zr102  O1061     1.03380      .   S
    Zr144  O1062     1.03564      .   S
    Zr84   O1062     1.03564      .   S
    Zr144  O1063     1.03380      .   S
    Zr99   O1063     1.03380      .   S
    Zr143  O1064     1.03564      .   S
    Zr83   O1064     1.03564  1_545   S
    Zr143  O1065     1.03380      .   S
    Zr98   O1065     1.03380      .   S
    Zr148  O1066     1.03564      .   S
    Zr88   O1066     1.03564  1_565   S
    Zr148  O1067     1.03380      .   S
    Zr103  O1067     1.03380      .   S
    Zr129  O1068     1.10126      .   S
    Zr294  O1068     1.10126      .   S
    Zr129  O1069     1.10693      .   S
    Zr315  O1069     1.10693      .   S
    Zr129  O1070     1.01980      .   S
    Zr639  O1070     1.01980      .   S
    Zr132  O1071     1.10126      .   S
    Zr297  O1071     1.10126      .   S
    Zr132  O1072     1.10693      .   S
    Zr314  O1072     1.10693      .   S
    Zr132  O1073     1.01980      .   S
    Zr642  O1073     1.01980      .   S
    Zr128  O1074     1.10126      .   S
    Zr293  O1074     1.10126      .   S
    Zr128  O1075     1.10693      .   S
    Zr17   O1075     1.10693  1_545   S
    Zr128  O1076     1.01980      .   S
    Zr638  O1076     1.01980      .   S
    Zr133  O1077     1.10126      .   S
    Zr298  O1077     1.10126      .   S
    Zr133  O1078     1.10693      .   S
    Zr303  O1078     1.10693  1_565   S
    Zr133  O1079     1.01980      .   S
    Zr643  O1079     1.01980      .   S
    Zr88   O1080     1.03548      .   S
    Zr163  O1080     1.03548      .   S
    Zr88   O1081     1.10936      .   S
    Zr270  O1081     1.10936  1_545   S
    Zr88   O1082     1.10108      .   S
    Zr448  O1082     1.10108      .   S
    Zr87   O1083     1.03548      .   S
    Zr162  O1083     1.03548      .   S
    Zr87   O1084     1.10936      .   S
    Zr14   O1084     1.10936      .   S
    Zr87   O1085     1.10108      .   S
    Zr447  O1085     1.10108      .   S
    Zr84   O1086     1.03548      .   S
    Zr159  O1086     1.03548      .   S
    Zr84   O1087     1.10936      .   S
    Zr258  O1087     1.10936      .   S
    Zr84   O1088     1.10108      .   S
    Zr444  O1088     1.10108      .   S
    Zr83   O1089     1.03548      .   S
    Zr158  O1089     1.03548      .   S
    Zr83   O1090     1.10936      .   S
    Zr269  O1090     1.10936  1_565   S
    Zr83   O1091     1.10108      .   S
    Zr443  O1091     1.10108      .   S
    Zr673  O1092     0.50026      .   S
    Zr688  O1092     0.50026      .   S
    Zr672  O1093     0.50026      .   S
    Zr687  O1093     0.50026      .   S
    Zr669  O1094     0.50026      .   S
    Zr684  O1094     0.50026      .   S
    Zr668  O1095     0.50026      .   S
    Zr683  O1095     0.50026      .   S
    Zr297  O1096     0.63871      .   S
    Zr492  O1096     0.63871      .   S
    Zr293  O1097     0.63871      .   S
    Zr488  O1097     0.63871      .   S
    Zr298  O1098     0.63871      .   S
    Zr493  O1098     0.63871      .   S
    Zr294  O1099     0.63871      .   S
    Zr489  O1099     0.63871      .   S
    Zr14   O1100     0.63156      .   S
    Zr36   O1100     0.63156      .   S
    Zr258  O1101     0.63156      .   S
    Zr588  O1101     0.63156      .   S
    Zr269  O1102     0.63156      .   S
    Zr599  O1102     0.63156      .   S
    Zr270  O1103     0.63156      .   S
    Zr600  O1103     0.63156      .   S
    Zr17   O1104     0.63021      .   S
    Zr37   O1104     0.63021      .   S
    Zr314  O1105     0.63021      .   S
    Zr614  O1105     0.63021      .   S
    Zr315  O1106     0.63021      .   S
    Zr615  O1106     0.63021      .   S
    Zr303  O1107     0.63021      .   S
    Zr603  O1107     0.63021      .   S
    Zr643  O1108     1.02664  1_545   S
    Zr58   O1108     1.02664      .   S
    Zr642  O1109     1.02664      .   S
    Zr57   O1109     1.02664      .   S
    Zr639  O1110     1.02664      .   S
    Zr54   O1110     1.02664      .   S
    Zr638  O1111     1.02664  1_565   S
    Zr53   O1111     1.02664      .   S
    Zr99   O1112     1.11765      .   S
    Zr369  O1112     1.11765      .   S
    Zr99   O1113     1.08709      .   S
    Zr286  O1113     1.08709      .   S
    Zr98   O1114     1.11765      .   S
    Zr368  O1114     1.11765  1_545   S
    Zr98   O1115     1.08709      .   S
    Zr287  O1115     1.08709      .   S
    Zr102  O1116     1.11765      .   S
    Zr372  O1116     1.11765      .   S
    Zr102  O1117     1.08709      .   S
    Zr275  O1117     1.08709      .   S
    Zr103  O1118     1.11765      .   S
    Zr373  O1118     1.11765  1_565   S
    Zr103  O1119     1.08709      .   S
    Zr274  O1119     1.08709      .   S
    Zr443  O1120     0.62557      .   S
    Zr578  O1120     0.62557      .   S
    Zr444  O1121     0.62557      .   S
    Zr579  O1121     0.62557      .   S
    Zr447  O1122     0.62557      .   S
    Zr582  O1122     0.62557      .   S
    Zr448  O1123     0.62557      .   S
    Zr583  O1123     0.62557      .   S
    Zr36   O1124     0.63432      .   S
    Zr18   O1124     0.63432      .   S
    Zr600  O1125     0.63432      .   S
    Zr330  O1125     0.63432      .   S
    Zr588  O1126     0.63432      .   S
    Zr318  O1126     0.63432      .   S
    Zr599  O1127     0.63432      .   S
    Zr329  O1127     0.63432      .   S
    Zr492  O1128     0.62089      .   S
    Zr357  O1128     0.62089      .   S
    Zr489  O1129     0.62089      .   S
    Zr354  O1129     0.62089      .   S
    Zr488  O1130     0.62089      .   S
    Zr353  O1130     0.62089      .   S
    Zr493  O1131     0.62089      .   S
    Zr358  O1131     0.62089      .   S
    Zr54   O1132     1.12542      .   S
    Zr474  O1132     1.12542      .   S
    Zr53   O1133     1.12542      .   S
    Zr473  O1133     1.12542      .   S
    Zr57   O1134     1.12542      .   S
    Zr477  O1134     1.12542      .   S
    Zr58   O1135     1.12542      .   S
    Zr478  O1135     1.12542      .   S
    Zr369  O1136     0.49897      .   S
    Zr384  O1136     0.49897      .   S
    Zr368  O1137     0.49897      .   S
    Zr383  O1137     0.49897      .   S
    Zr373  O1138     0.49897      .   S
    Zr388  O1138     0.49897      .   S
    Zr372  O1139     0.49897      .   S
    Zr387  O1139     0.49897      .   S
    Zr37   O1140     0.62882      .   S
    Zr13   O1140     0.62882      .   S
    Zr603  O1141     0.62882      .   S
    Zr243  O1141     0.62882      .   S
    Zr615  O1142     0.62882      .   S
    Zr255  O1142     0.62882      .   S
    Zr614  O1143     0.62882      .   S
    Zr254  O1143     0.62882      .   S
    Zr578  O1144     0.62937      .   S
    Zr473  O1144     0.62937      .   S
    Zr579  O1145     0.62937      .   S
    Zr474  O1145     0.62937      .   S
    Zr582  O1146     0.62937      .   S
    Zr477  O1146     0.62937      .   S
    Zr583  O1147     0.62937      .   S
    Zr478  O1147     0.62937      .   S
    Zr38   O1148     0.64385  1_455   S
    Zr30   O1148     0.64385      .   S
    Zr38   O1149     0.64134      .   S
    Zr23   O1149     0.64134      .   S
    Zr630  O1150     0.64385      .   S
    Zr510  O1150     0.64385      .   S
    Zr630  O1151     0.64134      .   S
    Zr405  O1151     0.64134      .   S
    Zr629  O1152     0.64385      .   S
    Zr509  O1152     0.64385      .   S
    Zr629  O1153     0.64134      .   S
    Zr404  O1153     0.64134      .   S
    Zr618  O1154     0.64385  1_655   S
    Zr498  O1154     0.64385      .   S
    Zr618  O1155     0.64134      .   S
    Zr393  O1155     0.64134      .   S
    Zr23   O1156     1.09931      .   S
    Zr4    O1156     1.09931      .   S
    Zr393  O1157     1.09931      .   S
    Zr108  O1157     1.09931      .   S
    Zr404  O1158     1.09931      .   S
    Zr119  O1158     1.09931      .   S
    Zr405  O1159     1.09931      .   S
    Zr120  O1159     1.09931      .   S
    Zr275  O1160     0.64194      .   S
    Zr755  O1160     0.64194      .   S
    Zr274  O1161     0.64194      .   S
    Zr754  O1161     0.64194      .   S
    Zr286  O1162     0.64194      .   S
    Zr766  O1162     0.64194      .   S
    Zr287  O1163     0.64194      .   S
    Zr767  O1163     0.64194      .   S
    Zr32   O1164     0.63049      .   S
    Zr45   O1164     0.63049      .   S
    Zr32   O1165     1.12249      .   S
    Zr1    O1165     1.12249  1_655   S
    Zr539  O1166     0.63049      .   S
    Zr734  O1166     0.63049      .   S
    Zr539  O1167     1.12249      .   S
    Zr74   O1167     1.12249      .   S
    Zr540  O1168     0.63049      .   S
    Zr735  O1168     0.63049      .   S
    Zr540  O1169     1.12249      .   S
    Zr75   O1169     1.12249      .   S
    Zr528  O1170     0.63049      .   S
    Zr723  O1170     0.63049      .   S
    Zr528  O1171     1.12249      .   S
    Zr63   O1171     1.12249  1_455   S
    Zr424  O1172     0.63920      .   S
    Zr754  O1172     0.63920  1_545   S
    Zr425  O1173     0.63920      .   S
    Zr755  O1173     0.63920      .   S
    Zr436  O1174     0.63920      .   S
    Zr766  O1174     0.63920      .   S
    Zr437  O1175     0.63920      .   S
    Zr767  O1175     0.63920  1_565   S
    Zr44   O1176     0.50080      .   S
    Zr43   O1176     0.50080      .   S
    Zr720  O1177     0.50080      .   S
    Zr705  O1177     0.50080      .   S
    Zr708  O1178     0.50080      .   S
    Zr693  O1178     0.50080      .   S
    Zr719  O1179     0.50080      .   S
    Zr704  O1179     0.50080      .   S
    Zr723  O1180     0.63764      .   S
    Zr453  O1180     0.63764      .   S
    Zr234  O1181     0.63386      .   S
    Zr549  O1181     0.63386      .   S
    Zr238  O1182     0.63386      .   S
    Zr553  O1182     0.63386      .   S
    Zr45   O1183     0.63764      .   S
    Zr27   O1183     0.63764      .   S
    Zr735  O1184     0.63764      .   S
    Zr465  O1184     0.63764      .   S
    Zr237  O1185     0.63386      .   S
    Zr552  O1185     0.63386      .   S
    Zr734  O1186     0.63764      .   S
    Zr464  O1186     0.63764      .   S
    Zr233  O1187     0.63386      .   S
    Zr548  O1187     0.63386      .   S
    Zr414  O1188     0.62657      .   S
    Zr519  O1188     0.62657      .   S
    Zr417  O1189     0.62657      .   S
    Zr522  O1189     0.62657      .   S
    Zr418  O1190     0.62657      .   S
    Zr523  O1190     0.62657      .   S
    Zr413  O1191     0.62657      .   S
    Zr518  O1191     0.62657      .   S
    Zr548  O1192     0.63070      .   S
    Zr218  O1192     0.63070      .   S
    Zr549  O1193     0.63070      .   S
    Zr219  O1193     0.63070      .   S
    Zr552  O1194     0.63070      .   S
    Zr222  O1194     0.63070      .   S
    Zr553  O1195     0.63070      .   S
    Zr223  O1195     0.63070      .   S
    Zr518  O1196     0.63641      .   S
    Zr173  O1196     0.63641      .   S
    Zr519  O1197     0.63641      .   S
    Zr174  O1197     0.63641      .   S
    Zr522  O1198     0.63641      .   S
    Zr177  O1198     0.63641      .   S
    Zr523  O1199     0.63641      .   S
    Zr178  O1199     0.63641      .   S
    Zr46   O1200     0.62718      .   S
    Zr34   O1200     0.62718      .   S
    Zr749  O1201     0.62718      .   S
    Zr569  O1201     0.62718      .   S
    Zr750  O1202     0.62718      .   S
    Zr570  O1202     0.62718      .   S
    Zr738  O1203     0.62718      .   S
    Zr558  O1203     0.62718      .   S
    Zr1    O1204     1.11527      .   S
    Zr43   O1204     1.11527      .   S
    Zr1    O1205     1.02309  1_655   S
    Zr40   O1205     1.02309      .   S
    Zr63   O1206     1.11527      .   S
    Zr693  O1206     1.11527      .   S
    Zr63   O1207     1.02309  1_455   S
    Zr648  O1207     1.02309      .   S
    Zr74   O1208     1.11527      .   S
    Zr704  O1208     1.11527      .   S
    Zr74   O1209     1.02309      .   S
    Zr659  O1209     1.02309      .   S
    Zr75   O1210     1.11527      .   S
    Zr705  O1210     1.11527      .   S
    Zr75   O1211     1.02309      .   S
    Zr660  O1211     1.02309      .   S
    Zr34   O1212     0.63083      .   S
    Zr19   O1212     0.63083      .   S
    Zr558  O1213     0.63083      .   S
    Zr333  O1213     0.63083      .   S
    Zr569  O1214     0.63083      .   S
    Zr344  O1214     0.63083      .   S
    Zr570  O1215     0.63083      .   S
    Zr345  O1215     0.63083      .   S
    Zr27   O1216     1.10572      .   S
    Zr5    O1216     1.10572      .   S
    Zr464  O1217     1.10572      .   S
    Zr134  O1217     1.10572      .   S
    Zr453  O1218     1.10572      .   S
    Zr123  O1218     1.10572      .   S
    Zr465  O1219     1.10572      .   S
    Zr135  O1219     1.10572      .   S
    Zr4    O1220     1.11893      .   S
    Zr41   O1220     1.11893      .   S
    Zr4    O1221     1.03669  1_455   S
    Zr7    O1221     1.03669      .   S
    Zr108  O1222     1.11893      .   S
    Zr663  O1222     1.11893      .   S
    Zr108  O1223     1.03669  1_655   S
    Zr153  O1223     1.03669      .   S
    Zr119  O1224     1.11893      .   S
    Zr674  O1224     1.11893      .   S
    Zr119  O1225     1.03669      .   S
    Zr164  O1225     1.03669      .   S
    Zr120  O1226     1.11893      .   S
    Zr675  O1226     1.11893      .   S
    Zr120  O1227     1.03669      .   S
    Zr165  O1227     1.03669      .   S
    Zr40   O1228     1.01682      .   S
    Zr5    O1228     1.01682      .   S
    Zr659  O1229     1.01682      .   S
    Zr134  O1229     1.01682      .   S
    Zr660  O1230     1.01682      .   S
    Zr135  O1230     1.01682      .   S
    Zr648  O1231     1.01682      .   S
    Zr123  O1231     1.01682      .   S
    Zr222  O1232     1.11081      .   S
    Zr78   O1232     1.11081      .   S
    Zr218  O1233     1.11081      .   S
    Zr90   O1233     1.11081      .   S
    Zr219  O1234     1.11081      .   S
    Zr2    O1234     1.11081      .   S
    Zr223  O1235     1.11081      .   S
    Zr89   O1235     1.11081      .   S
    Zr177  O1236     1.09218      .   S
    Zr135  O1236     1.09218      .   S
    Zr173  O1237     1.09218      .   S
    Zr123  O1237     1.09218      .   S
    Zr174  O1238     1.09218      .   S
    Zr134  O1238     1.09218      .   S
    Zr178  O1239     1.09218      .   S
    Zr5    O1239     1.09218      .   S
    Zr19   O1240     1.10477      .   S
    Zr2    O1240     1.10477      .   S
    Zr345  O1241     1.10477      .   S
    Zr90   O1241     1.10477      .   S
    Zr333  O1242     1.10477      .   S
    Zr78   O1242     1.10477      .   S
    Zr344  O1243     1.10477      .   S
    Zr89   O1243     1.10477      .   S
    Zr10   O1244     0.49995      .   S
    Zr9    O1244     0.49995      .   S
    Zr210  O1245     0.49995      .   S
    Zr195  O1245     0.49995      .   S
    Zr209  O1246     0.49995      .   S
    Zr194  O1246     0.49995      .   S
    Zr198  O1247     0.49995      .   S
    Zr183  O1247     0.49995      .   S
    Zr9    O1248     1.11420      .   S
    Zr3    O1248     1.11420  1_655   S
    Zr195  O1249     1.11420      .   S
    Zr105  O1249     1.11420      .   S
    Zr183  O1250     1.11420      .   S
    Zr93   O1250     1.11420  1_455   S
    Zr194  O1251     1.11420      .   S
    Zr104  O1251     1.11420      .   S
    Zr6    O1252     1.03564      .   S
    Zr2    O1252     1.03564      .   S
    Zr6    O1253     1.03380      .   S
    Zr3    O1253     1.03380      .   S
    Zr150  O1254     1.03564      .   S
    Zr90   O1254     1.03564      .   S
    Zr150  O1255     1.03380      .   S
    Zr105  O1255     1.03380      .   S
    Zr149  O1256     1.03564      .   S
    Zr89   O1256     1.03564      .   S
    Zr149  O1257     1.03380      .   S
    Zr104  O1257     1.03380      .   S
    Zr138  O1258     1.03564      .   S
    Zr78   O1258     1.03564      .   S
    Zr138  O1259     1.03380      .   S
    Zr93   O1259     1.03380      .   S
    Zr5    O1260     1.10126      .   S
    Zr16   O1260     1.10126      .   S
    Zr5    O1261     1.10693      .   S
    Zr304  O1261     1.10693      .   S
    Zr5    O1262     1.01980      .   S
    Zr39   O1262     1.01980      .   S
    Zr134  O1263     1.10126      .   S
    Zr299  O1263     1.10126      .   S
    Zr134  O1264     1.10693      .   S
    Zr316  O1264     1.10693      .   S
    Zr134  O1265     1.01980      .   S
    Zr644  O1265     1.01980      .   S
    Zr123  O1266     1.10126      .   S
    Zr288  O1266     1.10126      .   S
    Zr123  O1267     1.10693      .   S
    Zr317  O1267     1.10693      .   S
    Zr123  O1268     1.01980      .   S
    Zr633  O1268     1.01980      .   S
    Zr135  O1269     1.10126      .   S
    Zr300  O1269     1.10126      .   S
    Zr135  O1270     1.10693      .   S
    Zr305  O1270     1.10693      .   S
    Zr135  O1271     1.01980      .   S
    Zr645  O1271     1.01980      .   S
    Zr2    O1272     1.03548      .   S
    Zr7    O1272     1.03548      .   S
    Zr2    O1273     1.10936      .   S
    Zr271  O1273     1.10936      .   S
    Zr2    O1274     1.10108      .   S
    Zr26   O1274     1.10108      .   S
    Zr90   O1275     1.03548      .   S
    Zr165  O1275     1.03548      .   S
    Zr90   O1276     1.10936      .   S
    Zr272  O1276     1.10936      .   S
    Zr90   O1277     1.10108      .   S
    Zr450  O1277     1.10108      .   S
    Zr78   O1278     1.03548      .   S
    Zr153  O1278     1.03548      .   S
    Zr78   O1279     1.10936      .   S
    Zr260  O1279     1.10936      .   S
    Zr78   O1280     1.10108      .   S
    Zr438  O1280     1.10108      .   S
    Zr89   O1281     1.03548      .   S
    Zr164  O1281     1.03548      .   S
    Zr89   O1282     1.10936      .   S
    Zr259  O1282     1.10936      .   S
    Zr89   O1283     1.10108      .   S
    Zr449  O1283     1.10108      .   S
    Zr41   O1284     0.50026      .   S
    Zr42   O1284     0.50026      .   S
    Zr675  O1285     0.50026      .   S
    Zr690  O1285     0.50026      .   S
    Zr674  O1286     0.50026      .   S
    Zr689  O1286     0.50026      .   S
    Zr663  O1287     0.50026      .   S
    Zr678  O1287     0.50026      .   S
    Zr16   O1288     0.63871      .   S
    Zr29   O1288     0.63871      .   S
    Zr288  O1289     0.63871      .   S
    Zr483  O1289     0.63871      .   S
    Zr299  O1290     0.63871      .   S
    Zr494  O1290     0.63871      .   S
    Zr300  O1291     0.63871      .   S
    Zr495  O1291     0.63871      .   S
    Zr271  O1292     0.63156      .   S
    Zr601  O1292     0.63156      .   S
    Zr272  O1293     0.63156      .   S
    Zr602  O1293     0.63156      .   S
    Zr259  O1294     0.63156      .   S
    Zr589  O1294     0.63156      .   S
    Zr260  O1295     0.63156      .   S
    Zr590  O1295     0.63156      .   S
    Zr304  O1296     0.63021      .   S
    Zr604  O1296     0.63021      .   S
    Zr316  O1297     0.63021      .   S
    Zr616  O1297     0.63021      .   S
    Zr317  O1298     0.63021      .   S
    Zr617  O1298     0.63021      .   S
    Zr305  O1299     0.63021      .   S
    Zr605  O1299     0.63021      .   S
    Zr39   O1300     1.02664      .   S
    Zr0    O1300     1.02664      .   S
    Zr633  O1301     1.02664      .   S
    Zr48   O1301     1.02664      .   S
    Zr644  O1302     1.02664      .   S
    Zr59   O1302     1.02664      .   S
    Zr645  O1303     1.02664      .   S
    Zr60   O1303     1.02664      .   S
    Zr3    O1304     1.11765      .   S
    Zr21   O1304     1.11765      .   S
    Zr3    O1305     1.08709      .   S
    Zr281  O1305     1.08709      .   S
    Zr104  O1306     1.11765      .   S
    Zr374  O1306     1.11765      .   S
    Zr104  O1307     1.08709      .   S
    Zr277  O1307     1.08709      .   S
    Zr105  O1308     1.11765      .   S
    Zr375  O1308     1.11765      .   S
    Zr105  O1309     1.08709      .   S
    Zr276  O1309     1.08709      .   S
    Zr93   O1310     1.11765      .   S
    Zr363  O1310     1.11765      .   S
    Zr93   O1311     1.08709      .   S
    Zr280  O1311     1.08709      .   S
    Zr26   O1312     0.62557      .   S
    Zr35   O1312     0.62557      .   S
    Zr438  O1313     0.62557      .   S
    Zr573  O1313     0.62557      .   S
    Zr449  O1314     0.62557      .   S
    Zr584  O1314     0.62557      .   S
    Zr450  O1315     0.62557      .   S
    Zr585  O1315     0.62557      .   S
    Zr589  O1316     0.63432      .   S
    Zr319  O1316     0.63432      .   S
    Zr602  O1317     0.63432      .   S
    Zr332  O1317     0.63432      .   S
    Zr590  O1318     0.63432      .   S
    Zr320  O1318     0.63432      .   S
    Zr601  O1319     0.63432      .   S
    Zr331  O1319     0.63432      .   S
    Zr495  O1320     0.62089      .   S
    Zr360  O1320     0.62089      .   S
    Zr29   O1321     0.62089      .   S
    Zr20   O1321     0.62089      .   S
    Zr483  O1322     0.62089      .   S
    Zr348  O1322     0.62089      .   S
    Zr494  O1323     0.62089      .   S
    Zr359  O1323     0.62089      .   S
    Zr0    O1324     1.12542  1_455   S
    Zr28   O1324     1.12542      .   S
    Zr48   O1325     1.12542  1_655   S
    Zr468  O1325     1.12542      .   S
    Zr59   O1326     1.12542      .   S
    Zr479  O1326     1.12542      .   S
    Zr60   O1327     1.12542      .   S
    Zr480  O1327     1.12542      .   S
    Zr21   O1328     0.49897      .   S
    Zr22   O1328     0.49897      .   S
    Zr375  O1329     0.49897      .   S
    Zr390  O1329     0.49897      .   S
    Zr363  O1330     0.49897      .   S
    Zr378  O1330     0.49897      .   S
    Zr374  O1331     0.49897      .   S
    Zr389  O1331     0.49897      .   S
    Zr604  O1332     0.62882      .   S
    Zr244  O1332     0.62882      .   S
    Zr605  O1333     0.62882      .   S
    Zr245  O1333     0.62882      .   S
    Zr616  O1334     0.62882      .   S
    Zr256  O1334     0.62882      .   S
    Zr617  O1335     0.62882      .   S
    Zr257  O1335     0.62882      .   S
    Zr584  O1336     0.62937      .   S
    Zr479  O1336     0.62937      .   S
    Zr35   O1337     0.62937      .   S
    Zr28   O1337     0.62937      .   S
    Zr585  O1338     0.62937      .   S
    Zr480  O1338     0.62937      .   S
    Zr573  O1339     0.62937      .   S
    Zr468  O1339     0.62937      .   S
    Zr620  O1340     0.64385      .   S
    Zr500  O1340     0.64385      .   S
    Zr620  O1341     0.64134      .   S
    Zr395  O1341     0.64134      .   S
    Zr619  O1342     0.64385      .   S
    Zr499  O1342     0.64385  1_565   S
    Zr619  O1343     0.64134      .   S
    Zr394  O1343     0.64134      .   S
    Zr631  O1344     0.64385      .   S
    Zr511  O1344     0.64385      .   S
    Zr631  O1345     0.64134      .   S
    Zr406  O1345     0.64134      .   S
    Zr632  O1346     0.64385      .   S
    Zr512  O1346     0.64385  1_545   S
    Zr632  O1347     0.64134      .   S
    Zr407  O1347     0.64134      .   S
    Zr406  O1348     1.09931      .   S
    Zr121  O1348     1.09931      .   S
    Zr407  O1349     1.09931      .   S
    Zr122  O1349     1.09931      .   S
    Zr394  O1350     1.09931      .   S
    Zr109  O1350     1.09931      .   S
    Zr395  O1351     1.09931      .   S
    Zr110  O1351     1.09931      .   S
    Zr277  O1352     0.64194      .   S
    Zr757  O1352     0.64194      .   S
    Zr281  O1353     0.64194      .   S
    Zr761  O1353     0.64194  1_455   S
    Zr280  O1354     0.64194      .   S
    Zr760  O1354     0.64194  1_655   S
    Zr276  O1355     0.64194      .   S
    Zr756  O1355     0.64194      .   S
    Zr530  O1356     0.63049      .   S
    Zr725  O1356     0.63049      .   S
    Zr530  O1357     1.12249      .   S
    Zr65   O1357     1.12249      .   S
    Zr541  O1358     0.63049      .   S
    Zr736  O1358     0.63049      .   S
    Zr541  O1359     1.12249      .   S
    Zr76   O1359     1.12249      .   S
    Zr542  O1360     0.63049      .   S
    Zr737  O1360     0.63049      .   S
    Zr542  O1361     1.12249      .   S
    Zr77   O1361     1.12249      .   S
    Zr529  O1362     0.63049      .   S
    Zr724  O1362     0.63049      .   S
    Zr529  O1363     1.12249      .   S
    Zr64   O1363     1.12249      .   S
    Zr430  O1364     0.63920      .   S
    Zr760  O1364     0.63920      .   S
    Zr426  O1365     0.63920      .   S
    Zr756  O1365     0.63920      .   S
    Zr431  O1366     0.63920      .   S
    Zr761  O1366     0.63920      .   S
    Zr427  O1367     0.63920      .   S
    Zr757  O1367     0.63920      .   S
    Zr709  O1368     0.50080      .   S
    Zr694  O1368     0.50080      .   S
    Zr710  O1369     0.50080      .   S
    Zr695  O1369     0.50080      .   S
    Zr721  O1370     0.50080      .   S
    Zr706  O1370     0.50080      .   S
    Zr722  O1371     0.50080      .   S
    Zr707  O1371     0.50080      .   S
    Zr737  O1372     0.63764      .   S
    Zr467  O1372     0.63764      .   S
    Zr12   O1373     0.63386      .   S
    Zr33   O1373     0.63386      .   S
    Zr724  O1374     0.63764      .   S
    Zr454  O1374     0.63764      .   S
    Zr725  O1375     0.63764      .   S
    Zr455  O1375     0.63764      .   S
    Zr736  O1376     0.63764      .   S
    Zr466  O1376     0.63764      .   S
    Zr228  O1377     0.63386      .   S
    Zr543  O1377     0.63386      .   S
    Zr239  O1378     0.63386      .   S
    Zr554  O1378     0.63386      .   S
    Zr240  O1379     0.63386      .   S
    Zr555  O1379     0.63386      .   S
    Zr24   O1380     0.62657      .   S
    Zr31   O1380     0.62657      .   S
    Zr419  O1381     0.62657      .   S
    Zr524  O1381     0.62657      .   S
    Zr420  O1382     0.62657      .   S
    Zr525  O1382     0.62657      .   S
    Zr408  O1383     0.62657      .   S
    Zr513  O1383     0.62657      .   S
    Zr554  O1384     0.63070      .   S
    Zr224  O1384     0.63070      .   S
    Zr543  O1385     0.63070      .   S
    Zr213  O1385     0.63070      .   S
    Zr33   O1386     0.63070      .   S
    Zr11   O1386     0.63070      .   S
    Zr555  O1387     0.63070      .   S
    Zr225  O1387     0.63070      .   S
    Zr31   O1388     0.63641      .   S
    Zr8    O1388     0.63641      .   S
    Zr525  O1389     0.63641      .   S
    Zr180  O1389     0.63641      .   S
    Zr513  O1390     0.63641      .   S
    Zr168  O1390     0.63641      .   S
    Zr524  O1391     0.63641      .   S
    Zr179  O1391     0.63641      .   S
    Zr740  O1392     0.62718      .   S
    Zr560  O1392     0.62718      .   S
    Zr751  O1393     0.62718      .   S
    Zr571  O1393     0.62718      .   S
    Zr739  O1394     0.62718      .   S
    Zr559  O1394     0.62718      .   S
    Zr752  O1395     0.62718      .   S
    Zr572  O1395     0.62718      .   S
    Zr77   O1396     1.11527      .   S
    Zr707  O1396     1.11527  1_565   S
    Zr77   O1397     1.02309      .   S
    Zr662  O1397     1.02309      .   S
    Zr64   O1398     1.11527      .   S
    Zr694  O1398     1.11527  1_545   S
    Zr64   O1399     1.02309      .   S
    Zr649  O1399     1.02309      .   S
    Zr65   O1400     1.11527      .   S
    Zr695  O1400     1.11527      .   S
    Zr65   O1401     1.02309      .   S
    Zr650  O1401     1.02309      .   S
    Zr76   O1402     1.11527      .   S
    Zr706  O1402     1.11527      .   S
    Zr76   O1403     1.02309      .   S
    Zr661  O1403     1.02309      .   S
    Zr559  O1404     0.63083      .   S
    Zr334  O1404     0.63083      .   S
    Zr560  O1405     0.63083      .   S
    Zr335  O1405     0.63083      .   S
    Zr571  O1406     0.63083      .   S
    Zr346  O1406     0.63083      .   S
    Zr572  O1407     0.63083      .   S
    Zr347  O1407     0.63083      .   S
    Zr455  O1408     1.10572      .   S
    Zr125  O1408     1.10572      .   S
    Zr466  O1409     1.10572      .   S
    Zr136  O1409     1.10572      .   S
    Zr467  O1410     1.10572      .   S
    Zr137  O1410     1.10572      .   S
    Zr454  O1411     1.10572      .   S
    Zr124  O1411     1.10572      .   S
    Zr110  O1412     1.11893      .   S
    Zr665  O1412     1.11893      .   S
    Zr110  O1413     1.03669      .   S
    Zr155  O1413     1.03669      .   S
    Zr109  O1414     1.11893      .   S
    Zr664  O1414     1.11893      .   S
    Zr109  O1415     1.03669      .   S
    Zr154  O1415     1.03669      .   S
    Zr121  O1416     1.11893      .   S
    Zr676  O1416     1.11893      .   S
    Zr121  O1417     1.03669      .   S
    Zr166  O1417     1.03669      .   S
    Zr122  O1418     1.11893      .   S
    Zr677  O1418     1.11893      .   S
    Zr122  O1419     1.03669      .   S
    Zr167  O1419     1.03669      .   S
    Zr649  O1420     1.01682      .   S
    Zr124  O1420     1.01682      .   S
    Zr650  O1421     1.01682      .   S
    Zr125  O1421     1.01682      .   S
    Zr661  O1422     1.01682      .   S
    Zr136  O1422     1.01682      .   S
    Zr662  O1423     1.01682      .   S
    Zr137  O1423     1.01682      .   S
    Zr11   O1424     1.11081  1_545   S
    Zr92   O1424     1.11081      .   S
    Zr213  O1425     1.11081  1_565   S
    Zr79   O1425     1.11081      .   S
    Zr225  O1426     1.11081      .   S
    Zr91   O1426     1.11081      .   S
    Zr224  O1427     1.11081      .   S
    Zr80   O1427     1.11081      .   S
    Zr8    O1428     1.09218      .   S
    Zr125  O1428     1.09218      .   S
    Zr180  O1429     1.09218  1_545   S
    Zr124  O1429     1.09218      .   S
    Zr179  O1430     1.09218  1_565   S
    Zr137  O1430     1.09218      .   S
    Zr168  O1431     1.09218      .   S
    Zr136  O1431     1.09218      .   S
    Zr347  O1432     1.10477      .   S
    Zr92   O1432     1.10477      .   S
    Zr346  O1433     1.10477      .   S
    Zr91   O1433     1.10477      .   S
    Zr335  O1434     1.10477      .   S
    Zr80   O1434     1.10477      .   S
    Zr334  O1435     1.10477      .   S
    Zr79   O1435     1.10477      .   S
    Zr199  O1436     0.49995      .   S
    Zr184  O1436     0.49995      .   S
    Zr200  O1437     0.49995      .   S
    Zr185  O1437     0.49995      .   S
    Zr211  O1438     0.49995      .   S
    Zr196  O1438     0.49995      .   S
    Zr212  O1439     0.49995      .   S
    Zr197  O1439     0.49995      .   S
    Zr197  O1440     1.11420      .   S
    Zr107  O1440     1.11420      .   S
    Zr196  O1441     1.11420      .   S
    Zr106  O1441     1.11420      .   S
    Zr184  O1442     1.11420      .   S
    Zr94   O1442     1.11420      .   S
    Zr185  O1443     1.11420      .   S
    Zr95   O1443     1.11420      .   S
    Zr151  O1444     1.03564      .   S
    Zr91   O1444     1.03564      .   S
    Zr151  O1445     1.03380      .   S
    Zr106  O1445     1.03380      .   S
    Zr140  O1446     1.03564      .   S
    Zr80   O1446     1.03564      .   S
    Zr140  O1447     1.03380      .   S
    Zr95   O1447     1.03380      .   S
    Zr139  O1448     1.03564      .   S
    Zr79   O1448     1.03564  1_545   S
    Zr139  O1449     1.03380      .   S
    Zr94   O1449     1.03380      .   S
    Zr152  O1450     1.03564      .   S
    Zr92   O1450     1.03564  1_565   S
    Zr152  O1451     1.03380      .   S
    Zr107  O1451     1.03380      .   S
    Zr124  O1452     1.10126      .   S
    Zr289  O1452     1.10126      .   S
    Zr124  O1453     1.10693      .   S
    Zr306  O1453     1.10693  1_545   S
    Zr124  O1454     1.01980      .   S
    Zr634  O1454     1.01980      .   S
    Zr125  O1455     1.10126      .   S
    Zr290  O1455     1.10126      .   S
    Zr125  O1456     1.10693      .   S
    Zr311  O1456     1.10693      .   S
    Zr125  O1457     1.01980      .   S
    Zr635  O1457     1.01980      .   S
    Zr136  O1458     1.10126      .   S
    Zr301  O1458     1.10126      .   S
    Zr136  O1459     1.10693      .   S
    Zr310  O1459     1.10693      .   S
    Zr136  O1460     1.01980      .   S
    Zr646  O1460     1.01980      .   S
    Zr137  O1461     1.10126      .   S
    Zr302  O1461     1.10126      .   S
    Zr137  O1462     1.10693      .   S
    Zr307  O1462     1.10693  1_565   S
    Zr137  O1463     1.01980      .   S
    Zr647  O1463     1.01980      .   S
    Zr92   O1464     1.03548      .   S
    Zr167  O1464     1.03548      .   S
    Zr92   O1465     1.10936      .   S
    Zr266  O1465     1.10936  1_545   S
    Zr92   O1466     1.10108      .   S
    Zr452  O1466     1.10108      .   S
    Zr91   O1467     1.03548      .   S
    Zr166  O1467     1.03548      .   S
    Zr91   O1468     1.10936      .   S
    Zr261  O1468     1.10936      .   S
    Zr91   O1469     1.10108      .   S
    Zr451  O1469     1.10108      .   S
    Zr80   O1470     1.03548      .   S
    Zr155  O1470     1.03548      .   S
    Zr80   O1471     1.10936      .   S
    Zr262  O1471     1.10936      .   S
    Zr80   O1472     1.10108      .   S
    Zr440  O1472     1.10108      .   S
    Zr79   O1473     1.03548      .   S
    Zr154  O1473     1.03548      .   S
    Zr79   O1474     1.10936      .   S
    Zr265  O1474     1.10936  1_565   S
    Zr79   O1475     1.10108      .   S
    Zr439  O1475     1.10108      .   S
    Zr676  O1476     0.50026      .   S
    Zr691  O1476     0.50026      .   S
    Zr677  O1477     0.50026      .   S
    Zr692  O1477     0.50026      .   S
    Zr665  O1478     0.50026      .   S
    Zr680  O1478     0.50026      .   S
    Zr664  O1479     0.50026      .   S
    Zr679  O1479     0.50026      .   S
    Zr302  O1480     0.63871      .   S
    Zr497  O1480     0.63871      .   S
    Zr301  O1481     0.63871      .   S
    Zr496  O1481     0.63871      .   S
    Zr290  O1482     0.63871      .   S
    Zr485  O1482     0.63871      .   S
    Zr289  O1483     0.63871      .   S
    Zr484  O1483     0.63871      .   S
    Zr266  O1484     0.63156      .   S
    Zr596  O1484     0.63156      .   S
    Zr265  O1485     0.63156      .   S
    Zr595  O1485     0.63156      .   S
    Zr262  O1486     0.63156      .   S
    Zr592  O1486     0.63156      .   S
    Zr261  O1487     0.63156      .   S
    Zr591  O1487     0.63156      .   S
    Zr311  O1488     0.63021      .   S
    Zr611  O1488     0.63021      .   S
    Zr307  O1489     0.63021      .   S
    Zr607  O1489     0.63021      .   S
    Zr310  O1490     0.63021      .   S
    Zr610  O1490     0.63021      .   S
    Zr306  O1491     0.63021      .   S
    Zr606  O1491     0.63021      .   S
    Zr635  O1492     1.02664      .   S
    Zr50   O1492     1.02664      .   S
    Zr646  O1493     1.02664      .   S
    Zr61   O1493     1.02664      .   S
    Zr647  O1494     1.02664  1_545   S
    Zr62   O1494     1.02664      .   S
    Zr634  O1495     1.02664  1_565   S
    Zr49   O1495     1.02664      .   S
    Zr107  O1496     1.11765      .   S
    Zr377  O1496     1.11765  1_565   S
    Zr106  O1497     1.11765      .   S
    Zr376  O1497     1.11765      .   S
    Zr95   O1498     1.11765      .   S
    Zr365  O1498     1.11765      .   S
    Zr94   O1499     1.11765      .   S
    Zr364  O1499     1.11765  1_545   S
    Zr439  O1500     0.62557      .   S
    Zr574  O1500     0.62557      .   S
    Zr452  O1501     0.62557      .   S
    Zr587  O1501     0.62557      .   S
    Zr440  O1502     0.62557      .   S
    Zr575  O1502     0.62557      .   S
    Zr451  O1503     0.62557      .   S
    Zr586  O1503     0.62557      .   S
    Zr596  O1504     0.63432      .   S
    Zr326  O1504     0.63432      .   S
    Zr595  O1505     0.63432      .   S
    Zr325  O1505     0.63432      .   S
    Zr592  O1506     0.63432      .   S
    Zr322  O1506     0.63432      .   S
    Zr591  O1507     0.63432      .   S
    Zr321  O1507     0.63432      .   S
    Zr497  O1508     0.62089      .   S
    Zr362  O1508     0.62089      .   S
    Zr496  O1509     0.62089      .   S
    Zr361  O1509     0.62089      .   S
    Zr485  O1510     0.62089      .   S
    Zr350  O1510     0.62089      .   S
    Zr484  O1511     0.62089      .   S
    Zr349  O1511     0.62089      .   S
    Zr62   O1512     1.12542      .   S
    Zr482  O1512     1.12542      .   S
    Zr61   O1513     1.12542      .   S
    Zr481  O1513     1.12542      .   S
    Zr50   O1514     1.12542      .   S
    Zr470  O1514     1.12542      .   S
    Zr49   O1515     1.12542      .   S
    Zr469  O1515     1.12542      .   S
    Zr376  O1516     0.49897      .   S
    Zr391  O1516     0.49897      .   S
    Zr377  O1517     0.49897      .   S
    Zr392  O1517     0.49897      .   S
    Zr365  O1518     0.49897      .   S
    Zr380  O1518     0.49897      .   S
    Zr364  O1519     0.49897      .   S
    Zr379  O1519     0.49897      .   S
    Zr607  O1520     0.62882      .   S
    Zr247  O1520     0.62882      .   S
    Zr606  O1521     0.62882      .   S
    Zr246  O1521     0.62882      .   S
    Zr610  O1522     0.62882      .   S
    Zr250  O1522     0.62882      .   S
    Zr611  O1523     0.62882      .   S
    Zr251  O1523     0.62882      .   S
    Zr575  O1524     0.62937      .   S
    Zr470  O1524     0.62937      .   S
    Zr586  O1525     0.62937      .   S
    Zr481  O1525     0.62937      .   S
    Zr587  O1526     0.62937      .   S
    Zr482  O1526     0.62937      .   S
    Zr574  O1527     0.62937      .   S
    Zr469  O1527     0.62937      .   S
    Zr622  O1528     0.64385      .   S
    Zr502  O1528     0.64385      .   S
    Zr622  O1529     0.64134      .   S
    Zr397  O1529     0.64134      .   S
    Zr626  O1530     0.64385  1_655   S
    Zr506  O1530     0.64385      .   S
    Zr626  O1531     0.64134      .   S
    Zr401  O1531     0.64134      .   S
    Zr621  O1532     0.64385      .   S
    Zr501  O1532     0.64385      .   S
    Zr621  O1533     0.64134      .   S
    Zr396  O1533     0.64134      .   S
    Zr625  O1534     0.64385  1_455   S
    Zr505  O1534     0.64385      .   S
    Zr625  O1535     0.64134      .   S
    Zr400  O1535     0.64134      .   S
    Zr6    O1536     1.03985      .   S
    Zr1    O1536     1.03985      .   S
    Zr7    O1537     1.03919      .   S
    Zr0    O1537     1.03919  1_455   S
    Zr9    O1538     1.12045      .   S
    Zr1    O1538     1.12045  1_655   S
    Zr9    O1539     1.15893      .   S
    Zr5    O1539     1.15893      .   S
    Zr12   O1540     1.12855      .   S
    Zr77   O1540     1.12855      .   S
    Zr13   O1541     1.14493      .   S
    Zr53   O1541     1.14493      .   S
    Zr18   O1542     1.12214      .   S
    Zr102  O1542     1.12214      .   S
    Zr20   O1543     1.14223      .   S
    Zr3    O1543     1.14223  1_655   S
    Zr21   O1544     1.12019      .   S
    Zr0    O1544     1.12019  1_455   S
    Zr21   O1545     1.12334      .   S
    Zr2    O1545     1.12334      .   S
    Zr24   O1546     1.15827      .   S
    Zr110  O1546     1.15827      .   S
    Zr25   O1547     1.13345      .   S
    Zr56   O1547     1.13345      .   S
    Zr30   O1548     1.12729      .   S
    Zr1    O1548     1.12729      .   S
    Zr39   O1549     1.03656      .   S
    Zr3    O1549     1.03656  1_655   S
    Zr40   O1550     1.03528      .   S
    Zr4    O1550     1.03528      .   S
    Zr41   O1551     1.12546      .   S
    Zr0    O1551     1.12546      .   S
    Zr41   O1552     1.16951      .   S
    Zr5    O1552     1.16951      .   S
    Zr43   O1553     1.12295      .   S
    Zr2    O1553     1.12295      .   S
    Zr43   O1554     1.12084      .   S
    Zr4    O1554     1.12084  1_455   S
    Zr46   O1555     1.13632      .   S
    Zr4    O1555     1.13632  1_455   S
    Zr138  O1556     1.03985      .   S
    Zr63   O1556     1.03985      .   S
    Zr139  O1557     1.03985      .   S
    Zr64   O1557     1.03985      .   S
    Zr140  O1558     1.03985      .   S
    Zr65   O1558     1.03985      .   S
    Zr141  O1559     1.03985      .   S
    Zr66   O1559     1.03985      .   S
    Zr142  O1560     1.03985      .   S
    Zr67   O1560     1.03985      .   S
    Zr143  O1561     1.03985      .   S
    Zr68   O1561     1.03985      .   S
    Zr144  O1562     1.03985      .   S
    Zr69   O1562     1.03985      .   S
    Zr145  O1563     1.03985      .   S
    Zr70   O1563     1.03985      .   S
    Zr146  O1564     1.03985      .   S
    Zr71   O1564     1.03985      .   S
    Zr147  O1565     1.03985      .   S
    Zr72   O1565     1.03985      .   S
    Zr148  O1566     1.03985      .   S
    Zr73   O1566     1.03985      .   S
    Zr149  O1567     1.03985      .   S
    Zr74   O1567     1.03985      .   S
    Zr150  O1568     1.03985      .   S
    Zr75   O1568     1.03985      .   S
    Zr151  O1569     1.03985      .   S
    Zr76   O1569     1.03985      .   S
    Zr152  O1570     1.03985      .   S
    Zr77   O1570     1.03985      .   S
    Zr153  O1571     1.03919      .   S
    Zr48   O1571     1.03919  1_655   S
    Zr154  O1572     1.03919      .   S
    Zr49   O1572     1.03919      .   S
    Zr155  O1573     1.03919      .   S
    Zr50   O1573     1.03919      .   S
    Zr156  O1574     1.03919      .   S
    Zr51   O1574     1.03919      .   S
    Zr157  O1575     1.03919      .   S
    Zr52   O1575     1.03919      .   S
    Zr158  O1576     1.03919      .   S
    Zr53   O1576     1.03919      .   S
    Zr159  O1577     1.03919      .   S
    Zr54   O1577     1.03919      .   S
    Zr160  O1578     1.03919      .   S
    Zr55   O1578     1.03919  1_455   S
    Zr161  O1579     1.03919      .   S
    Zr56   O1579     1.03919  1_655   S
    Zr162  O1580     1.03919      .   S
    Zr57   O1580     1.03919      .   S
    Zr163  O1581     1.03919      .   S
    Zr58   O1581     1.03919      .   S
    Zr164  O1582     1.03919      .   S
    Zr59   O1582     1.03919      .   S
    Zr165  O1583     1.03919      .   S
    Zr60   O1583     1.03919      .   S
    Zr166  O1584     1.03919      .   S
    Zr61   O1584     1.03919      .   S
    Zr167  O1585     1.03919      .   S
    Zr62   O1585     1.03919      .   S
    Zr183  O1586     1.12045      .   S
    Zr63   O1586     1.12045  1_455   S
    Zr183  O1587     1.15893      .   S
    Zr123  O1587     1.15893      .   S
    Zr184  O1588     1.12045      .   S
    Zr64   O1588     1.12045      .   S
    Zr184  O1589     1.15893      .   S
    Zr124  O1589     1.15893      .   S
    Zr185  O1590     1.12045      .   S
    Zr65   O1590     1.12045      .   S
    Zr185  O1591     1.15893      .   S
    Zr125  O1591     1.15893      .   S
    Zr186  O1592     1.12045      .   S
    Zr66   O1592     1.12045      .   S
    Zr186  O1593     1.15893      .   S
    Zr126  O1593     1.15893      .   S
    Zr187  O1594     1.12045      .   S
    Zr67   O1594     1.12045      .   S
    Zr187  O1595     1.15893      .   S
    Zr127  O1595     1.15893      .   S
    Zr188  O1596     1.12045      .   S
    Zr68   O1596     1.12045      .   S
    Zr188  O1597     1.15893      .   S
    Zr128  O1597     1.15893      .   S
    Zr189  O1598     1.12045      .   S
    Zr69   O1598     1.12045      .   S
    Zr189  O1599     1.15893      .   S
    Zr129  O1599     1.15893      .   S
    Zr190  O1600     1.12045      .   S
    Zr70   O1600     1.12045  1_655   S
    Zr190  O1601     1.15893      .   S
    Zr130  O1601     1.15893      .   S
    Zr191  O1602     1.12045      .   S
    Zr71   O1602     1.12045  1_455   S
    Zr191  O1603     1.15893      .   S
    Zr131  O1603     1.15893      .   S
    Zr192  O1604     1.12045      .   S
    Zr72   O1604     1.12045      .   S
    Zr192  O1605     1.15893      .   S
    Zr132  O1605     1.15893      .   S
    Zr193  O1606     1.12045      .   S
    Zr73   O1606     1.12045      .   S
    Zr193  O1607     1.15893      .   S
    Zr133  O1607     1.15893      .   S
    Zr194  O1608     1.12045      .   S
    Zr74   O1608     1.12045      .   S
    Zr194  O1609     1.15893      .   S
    Zr134  O1609     1.15893      .   S
    Zr195  O1610     1.12045      .   S
    Zr75   O1610     1.12045      .   S
    Zr195  O1611     1.15893      .   S
    Zr135  O1611     1.15893      .   S
    Zr196  O1612     1.12045      .   S
    Zr76   O1612     1.12045      .   S
    Zr196  O1613     1.15893      .   S
    Zr136  O1613     1.15893      .   S
    Zr197  O1614     1.12045      .   S
    Zr77   O1614     1.12045      .   S
    Zr197  O1615     1.15893      .   S
    Zr137  O1615     1.15893      .   S
    Zr228  O1616     1.12855      .   S
    Zr64   O1616     1.12855      .   S
    Zr229  O1617     1.12855      .   S
    Zr71   O1617     1.12855      .   S
    Zr230  O1618     1.12855      .   S
    Zr66   O1618     1.12855      .   S
    Zr231  O1619     1.12855      .   S
    Zr73   O1619     1.12855      .   S
    Zr232  O1620     1.12855      .   S
    Zr68   O1620     1.12855      .   S
    Zr233  O1621     1.12855      .   S
    Zr75   O1621     1.12855      .   S
    Zr234  O1622     1.12855      .   S
    Zr1    O1622     1.12855      .   S
    Zr235  O1623     1.12855      .   S
    Zr69   O1623     1.12855      .   S
    Zr236  O1624     1.12855      .   S
    Zr72   O1624     1.12855      .   S
    Zr237  O1625     1.12855      .   S
    Zr63   O1625     1.12855      .   S
    Zr238  O1626     1.12855      .   S
    Zr74   O1626     1.12855      .   S
    Zr239  O1627     1.12855      .   S
    Zr65   O1627     1.12855      .   S
    Zr240  O1628     1.12855      .   S
    Zr76   O1628     1.12855      .   S
    Zr241  O1629     1.12855      .   S
    Zr67   O1629     1.12855      .   S
    Zr242  O1630     1.12855      .   S
    Zr70   O1630     1.12855      .   S
    Zr243  O1631     1.14493      .   S
    Zr58   O1631     1.14493      .   S
    Zr244  O1632     1.14493      .   S
    Zr0    O1632     1.14493      .   S
    Zr245  O1633     1.14493      .   S
    Zr60   O1633     1.14493      .   S
    Zr246  O1634     1.14493      .   S
    Zr49   O1634     1.14493      .   S
    Zr247  O1635     1.14493      .   S
    Zr62   O1635     1.14493      .   S
    Zr248  O1636     1.14493      .   S
    Zr51   O1636     1.14493      .   S
    Zr249  O1637     1.14493      .   S
    Zr56   O1637     1.14493      .   S
    Zr250  O1638     1.14493      .   S
    Zr61   O1638     1.14493      .   S
    Zr251  O1639     1.14493      .   S
    Zr50   O1639     1.14493      .   S
    Zr252  O1640     1.14493      .   S
    Zr55   O1640     1.14493      .   S
    Zr253  O1641     1.14493      .   S
    Zr52   O1641     1.14493      .   S
    Zr254  O1642     1.14493      .   S
    Zr57   O1642     1.14493      .   S
    Zr255  O1643     1.14493      .   S
    Zr54   O1643     1.14493      .   S
    Zr256  O1644     1.14493      .   S
    Zr59   O1644     1.14493      .   S
    Zr257  O1645     1.14493      .   S
    Zr48   O1645     1.14493      .   S
    Zr318  O1646     1.12214      .   S
    Zr99   O1646     1.12214      .   S
    Zr319  O1647     1.12214      .   S
    Zr104  O1647     1.12214      .   S
    Zr320  O1648     1.12214      .   S
    Zr93   O1648     1.12214      .   S
    Zr321  O1649     1.12214      .   S
    Zr106  O1649     1.12214      .   S
    Zr322  O1650     1.12214      .   S
    Zr95   O1650     1.12214      .   S
    Zr323  O1651     1.12214      .   S
    Zr100  O1651     1.12214      .   S
    Zr324  O1652     1.12214      .   S
    Zr97   O1652     1.12214      .   S
    Zr325  O1653     1.12214      .   S
    Zr94   O1653     1.12214      .   S
    Zr326  O1654     1.12214      .   S
    Zr107  O1654     1.12214      .   S
    Zr327  O1655     1.12214      .   S
    Zr96   O1655     1.12214      .   S
    Zr328  O1656     1.12214      .   S
    Zr101  O1656     1.12214      .   S
    Zr329  O1657     1.12214      .   S
    Zr98   O1657     1.12214      .   S
    Zr330  O1658     1.12214      .   S
    Zr103  O1658     1.12214      .   S
    Zr331  O1659     1.12214      .   S
    Zr3    O1659     1.12214      .   S
    Zr332  O1660     1.12214      .   S
    Zr105  O1660     1.12214      .   S
    Zr348  O1661     1.14223      .   S
    Zr93   O1661     1.14223  1_455   S
    Zr349  O1662     1.14223      .   S
    Zr94   O1662     1.14223      .   S
    Zr350  O1663     1.14223      .   S
    Zr95   O1663     1.14223      .   S
    Zr351  O1664     1.14223      .   S
    Zr96   O1664     1.14223      .   S
    Zr352  O1665     1.14223      .   S
    Zr97   O1665     1.14223      .   S
    Zr353  O1666     1.14223      .   S
    Zr98   O1666     1.14223      .   S
    Zr354  O1667     1.14223      .   S
    Zr99   O1667     1.14223      .   S
    Zr355  O1668     1.14223      .   S
    Zr100  O1668     1.14223  1_655   S
    Zr356  O1669     1.14223      .   S
    Zr101  O1669     1.14223  1_455   S
    Zr357  O1670     1.14223      .   S
    Zr102  O1670     1.14223      .   S
    Zr358  O1671     1.14223      .   S
    Zr103  O1671     1.14223      .   S
    Zr359  O1672     1.14223      .   S
    Zr104  O1672     1.14223      .   S
    Zr360  O1673     1.14223      .   S
    Zr105  O1673     1.14223      .   S
    Zr361  O1674     1.14223      .   S
    Zr106  O1674     1.14223      .   S
    Zr362  O1675     1.14223      .   S
    Zr107  O1675     1.14223      .   S
    Zr363  O1676     1.12019      .   S
    Zr48   O1676     1.12019  1_655   S
    Zr363  O1677     1.12334      .   S
    Zr78   O1677     1.12334      .   S
    Zr364  O1678     1.12019      .   S
    Zr49   O1678     1.12019      .   S
    Zr364  O1679     1.12334      .   S
    Zr79   O1679     1.12334      .   S
    Zr365  O1680     1.12019      .   S
    Zr50   O1680     1.12019      .   S
    Zr365  O1681     1.12334      .   S
    Zr80   O1681     1.12334      .   S
    Zr366  O1682     1.12019      .   S
    Zr51   O1682     1.12019      .   S
    Zr366  O1683     1.12334      .   S
    Zr81   O1683     1.12334      .   S
    Zr367  O1684     1.12019      .   S
    Zr52   O1684     1.12019      .   S
    Zr367  O1685     1.12334      .   S
    Zr82   O1685     1.12334      .   S
    Zr368  O1686     1.12019      .   S
    Zr53   O1686     1.12019      .   S
    Zr368  O1687     1.12334      .   S
    Zr83   O1687     1.12334      .   S
    Zr369  O1688     1.12019      .   S
    Zr54   O1688     1.12019      .   S
    Zr369  O1689     1.12334      .   S
    Zr84   O1689     1.12334      .   S
    Zr370  O1690     1.12019      .   S
    Zr55   O1690     1.12019  1_455   S
    Zr370  O1691     1.12334      .   S
    Zr85   O1691     1.12334      .   S
    Zr371  O1692     1.12019      .   S
    Zr56   O1692     1.12019  1_655   S
    Zr371  O1693     1.12334      .   S
    Zr86   O1693     1.12334      .   S
    Zr372  O1694     1.12019      .   S
    Zr57   O1694     1.12019      .   S
    Zr372  O1695     1.12334      .   S
    Zr87   O1695     1.12334      .   S
    Zr373  O1696     1.12019      .   S
    Zr58   O1696     1.12019      .   S
    Zr373  O1697     1.12334      .   S
    Zr88   O1697     1.12334      .   S
    Zr374  O1698     1.12019      .   S
    Zr59   O1698     1.12019      .   S
    Zr374  O1699     1.12334      .   S
    Zr89   O1699     1.12334      .   S
    Zr375  O1700     1.12019      .   S
    Zr60   O1700     1.12019      .   S
    Zr375  O1701     1.12334      .   S
    Zr90   O1701     1.12334      .   S
    Zr376  O1702     1.12019      .   S
    Zr61   O1702     1.12019      .   S
    Zr376  O1703     1.12334      .   S
    Zr91   O1703     1.12334      .   S
    Zr377  O1704     1.12019      .   S
    Zr62   O1704     1.12019      .   S
    Zr377  O1705     1.12334      .   S
    Zr92   O1705     1.12334      .   S
    Zr408  O1706     1.15827      .   S
    Zr121  O1706     1.15827      .   S
    Zr409  O1707     1.15827      .   S
    Zr112  O1707     1.15827      .   S
    Zr410  O1708     1.15827      .   S
    Zr115  O1708     1.15827      .   S
    Zr411  O1709     1.15827      .   S
    Zr114  O1709     1.15827      .   S
    Zr412  O1710     1.15827      .   S
    Zr117  O1710     1.15827      .   S
    Zr413  O1711     1.15827      .   S
    Zr108  O1711     1.15827      .   S
    Zr414  O1712     1.15827      .   S
    Zr119  O1712     1.15827      .   S
    Zr415  O1713     1.15827      .   S
    Zr118  O1713     1.15827      .   S
    Zr416  O1714     1.15827      .   S
    Zr113  O1714     1.15827      .   S
    Zr417  O1715     1.15827      .   S
    Zr120  O1715     1.15827      .   S
    Zr418  O1716     1.15827      .   S
    Zr4    O1716     1.15827      .   S
    Zr419  O1717     1.15827      .   S
    Zr122  O1717     1.15827      .   S
    Zr420  O1718     1.15827      .   S
    Zr109  O1718     1.15827      .   S
    Zr421  O1719     1.15827      .   S
    Zr116  O1719     1.15827      .   S
    Zr422  O1720     1.15827      .   S
    Zr111  O1720     1.15827      .   S
    Zr423  O1721     1.13345      .   S
    Zr55   O1721     1.13345      .   S
    Zr424  O1722     1.13345      .   S
    Zr58   O1722     1.13345      .   S
    Zr425  O1723     1.13345      .   S
    Zr57   O1723     1.13345      .   S
    Zr426  O1724     1.13345      .   S
    Zr60   O1724     1.13345      .   S
    Zr427  O1725     1.13345      .   S
    Zr59   O1725     1.13345      .   S
    Zr428  O1726     1.13345  1_554   S
    Zr62   O1726     1.13345      .   S
    Zr429  O1727     1.13345  1_554   S
    Zr61   O1727     1.13345      .   S
    Zr430  O1728     1.13345      .   S
    Zr48   O1728     1.13345      .   S
    Zr431  O1729     1.13345      .   S
    Zr0    O1729     1.13345      .   S
    Zr432  O1730     1.13345  1_554   S
    Zr50   O1730     1.13345      .   S
    Zr433  O1731     1.13345  1_554   S
    Zr49   O1731     1.13345      .   S
    Zr434  O1732     1.13345      .   S
    Zr52   O1732     1.13345      .   S
    Zr435  O1733     1.13345      .   S
    Zr51   O1733     1.13345      .   S
    Zr436  O1734     1.13345      .   S
    Zr54   O1734     1.13345      .   S
    Zr437  O1735     1.13345      .   S
    Zr53   O1735     1.13345      .   S
    Zr498  O1736     1.12729      .   S
    Zr63   O1736     1.12729      .   S
    Zr499  O1737     1.12729      .   S
    Zr64   O1737     1.12729      .   S
    Zr500  O1738     1.12729      .   S
    Zr65   O1738     1.12729      .   S
    Zr501  O1739     1.12729  1_556   S
    Zr66   O1739     1.12729      .   S
    Zr502  O1740     1.12729  1_556   S
    Zr67   O1740     1.12729      .   S
    Zr503  O1741     1.12729      .   S
    Zr68   O1741     1.12729      .   S
    Zr504  O1742     1.12729      .   S
    Zr69   O1742     1.12729      .   S
    Zr505  O1743     1.12729  1_556   S
    Zr70   O1743     1.12729      .   S
    Zr506  O1744     1.12729  1_556   S
    Zr71   O1744     1.12729      .   S
    Zr507  O1745     1.12729      .   S
    Zr72   O1745     1.12729      .   S
    Zr508  O1746     1.12729      .   S
    Zr73   O1746     1.12729      .   S
    Zr509  O1747     1.12729      .   S
    Zr74   O1747     1.12729      .   S
    Zr510  O1748     1.12729      .   S
    Zr75   O1748     1.12729      .   S
    Zr511  O1749     1.12729      .   S
    Zr76   O1749     1.12729      .   S
    Zr512  O1750     1.12729      .   S
    Zr77   O1750     1.12729      .   S
    Zr633  O1751     1.03656      .   S
    Zr93   O1751     1.03656  1_455   S
    Zr634  O1752     1.03656      .   S
    Zr94   O1752     1.03656      .   S
    Zr635  O1753     1.03656      .   S
    Zr95   O1753     1.03656      .   S
    Zr636  O1754     1.03656      .   S
    Zr96   O1754     1.03656      .   S
    Zr637  O1755     1.03656      .   S
    Zr97   O1755     1.03656      .   S
    Zr638  O1756     1.03656      .   S
    Zr98   O1756     1.03656      .   S
    Zr639  O1757     1.03656      .   S
    Zr99   O1757     1.03656      .   S
    Zr640  O1758     1.03656      .   S
    Zr100  O1758     1.03656  1_655   S
    Zr641  O1759     1.03656      .   S
    Zr101  O1759     1.03656  1_455   S
    Zr642  O1760     1.03656      .   S
    Zr102  O1760     1.03656      .   S
    Zr643  O1761     1.03656      .   S
    Zr103  O1761     1.03656      .   S
    Zr644  O1762     1.03656      .   S
    Zr104  O1762     1.03656      .   S
    Zr645  O1763     1.03656      .   S
    Zr105  O1763     1.03656      .   S
    Zr646  O1764     1.03656      .   S
    Zr106  O1764     1.03656      .   S
    Zr647  O1765     1.03656      .   S
    Zr107  O1765     1.03656      .   S
    Zr648  O1766     1.03528      .   S
    Zr108  O1766     1.03528      .   S
    Zr649  O1767     1.03528  1_565   S
    Zr109  O1767     1.03528      .   S
    Zr650  O1768     1.03528      .   S
    Zr110  O1768     1.03528      .   S
    Zr651  O1769     1.03528      .   S
    Zr111  O1769     1.03528      .   S
    Zr652  O1770     1.03528      .   S
    Zr112  O1770     1.03528      .   S
    Zr653  O1771     1.03528  1_565   S
    Zr113  O1771     1.03528      .   S
    Zr654  O1772     1.03528      .   S
    Zr114  O1772     1.03528      .   S
    Zr655  O1773     1.03528      .   S
    Zr115  O1773     1.03528      .   S
    Zr656  O1774     1.03528      .   S
    Zr116  O1774     1.03528      .   S
    Zr657  O1775     1.03528      .   S
    Zr117  O1775     1.03528      .   S
    Zr658  O1776     1.03528  1_545   S
    Zr118  O1776     1.03528      .   S
    Zr659  O1777     1.03528      .   S
    Zr119  O1777     1.03528      .   S
    Zr660  O1778     1.03528      .   S
    Zr120  O1778     1.03528      .   S
    Zr661  O1779     1.03528      .   S
    Zr121  O1779     1.03528      .   S
    Zr662  O1780     1.03528  1_545   S
    Zr122  O1780     1.03528      .   S
    Zr663  O1781     1.12546      .   S
    Zr48   O1781     1.12546      .   S
    Zr663  O1782     1.16951      .   S
    Zr123  O1782     1.16951      .   S
    Zr664  O1783     1.12546      .   S
    Zr49   O1783     1.12546      .   S
    Zr664  O1784     1.16951      .   S
    Zr124  O1784     1.16951  1_565   S
    Zr665  O1785     1.12546      .   S
    Zr50   O1785     1.12546      .   S
    Zr665  O1786     1.16951      .   S
    Zr125  O1786     1.16951      .   S
    Zr666  O1787     1.12546      .   S
    Zr51   O1787     1.12546      .   S
    Zr666  O1788     1.16951      .   S
    Zr126  O1788     1.16951      .   S
    Zr667  O1789     1.12546      .   S
    Zr52   O1789     1.12546      .   S
    Zr667  O1790     1.16951      .   S
    Zr127  O1790     1.16951      .   S
    Zr668  O1791     1.12546      .   S
    Zr53   O1791     1.12546      .   S
    Zr668  O1792     1.16951      .   S
    Zr128  O1792     1.16951  1_565   S
    Zr669  O1793     1.12546      .   S
    Zr54   O1793     1.12546      .   S
    Zr669  O1794     1.16951      .   S
    Zr129  O1794     1.16951      .   S
    Zr670  O1795     1.12546      .   S
    Zr55   O1795     1.12546      .   S
    Zr670  O1796     1.16951      .   S
    Zr130  O1796     1.16951      .   S
    Zr671  O1797     1.12546      .   S
    Zr56   O1797     1.12546      .   S
    Zr671  O1798     1.16951      .   S
    Zr131  O1798     1.16951      .   S
    Zr672  O1799     1.12546      .   S
    Zr57   O1799     1.12546      .   S
    Zr672  O1800     1.16951      .   S
    Zr132  O1800     1.16951      .   S
    Zr673  O1801     1.12546      .   S
    Zr58   O1801     1.12546      .   S
    Zr673  O1802     1.16951      .   S
    Zr133  O1802     1.16951  1_545   S
    Zr674  O1803     1.12546      .   S
    Zr59   O1803     1.12546      .   S
    Zr674  O1804     1.16951      .   S
    Zr134  O1804     1.16951      .   S
    Zr675  O1805     1.12546      .   S
    Zr60   O1805     1.12546      .   S
    Zr675  O1806     1.16951      .   S
    Zr135  O1806     1.16951      .   S
    Zr676  O1807     1.12546      .   S
    Zr61   O1807     1.12546      .   S
    Zr676  O1808     1.16951      .   S
    Zr136  O1808     1.16951      .   S
    Zr677  O1809     1.12546      .   S
    Zr62   O1809     1.12546      .   S
    Zr677  O1810     1.16951      .   S
    Zr137  O1810     1.16951  1_545   S
    Zr693  O1811     1.12295      .   S
    Zr78   O1811     1.12295      .   S
    Zr693  O1812     1.12084      .   S
    Zr108  O1812     1.12084  1_655   S
    Zr694  O1813     1.12295      .   S
    Zr79   O1813     1.12295      .   S
    Zr694  O1814     1.12084      .   S
    Zr109  O1814     1.12084      .   S
    Zr695  O1815     1.12295      .   S
    Zr80   O1815     1.12295      .   S
    Zr695  O1816     1.12084      .   S
    Zr110  O1816     1.12084      .   S
    Zr696  O1817     1.12295      .   S
    Zr81   O1817     1.12295      .   S
    Zr696  O1818     1.12084      .   S
    Zr111  O1818     1.12084      .   S
    Zr697  O1819     1.12295      .   S
    Zr82   O1819     1.12295      .   S
    Zr697  O1820     1.12084      .   S
    Zr112  O1820     1.12084      .   S
    Zr698  O1821     1.12295      .   S
    Zr83   O1821     1.12295      .   S
    Zr698  O1822     1.12084      .   S
    Zr113  O1822     1.12084      .   S
    Zr699  O1823     1.12295      .   S
    Zr84   O1823     1.12295      .   S
    Zr699  O1824     1.12084      .   S
    Zr114  O1824     1.12084      .   S
    Zr700  O1825     1.12295      .   S
    Zr85   O1825     1.12295      .   S
    Zr700  O1826     1.12084      .   S
    Zr115  O1826     1.12084  1_455   S
    Zr701  O1827     1.12295      .   S
    Zr86   O1827     1.12295      .   S
    Zr701  O1828     1.12084      .   S
    Zr116  O1828     1.12084  1_655   S
    Zr702  O1829     1.12295      .   S
    Zr87   O1829     1.12295      .   S
    Zr702  O1830     1.12084      .   S
    Zr117  O1830     1.12084      .   S
    Zr703  O1831     1.12295      .   S
    Zr88   O1831     1.12295      .   S
    Zr703  O1832     1.12084      .   S
    Zr118  O1832     1.12084      .   S
    Zr704  O1833     1.12295      .   S
    Zr89   O1833     1.12295      .   S
    Zr704  O1834     1.12084      .   S
    Zr119  O1834     1.12084      .   S
    Zr705  O1835     1.12295      .   S
    Zr90   O1835     1.12295      .   S
    Zr705  O1836     1.12084      .   S
    Zr120  O1836     1.12084      .   S
    Zr706  O1837     1.12295      .   S
    Zr91   O1837     1.12295      .   S
    Zr706  O1838     1.12084      .   S
    Zr121  O1838     1.12084      .   S
    Zr707  O1839     1.12295      .   S
    Zr92   O1839     1.12295      .   S
    Zr707  O1840     1.12084      .   S
    Zr122  O1840     1.12084      .   S
    Zr738  O1841     1.13632      .   S
    Zr108  O1841     1.13632  1_655   S
    Zr739  O1842     1.13632      .   S
    Zr109  O1842     1.13632      .   S
    Zr740  O1843     1.13632      .   S
    Zr110  O1843     1.13632      .   S
    Zr741  O1844     1.13632      .   S
    Zr111  O1844     1.13632      .   S
    Zr742  O1845     1.13632      .   S
    Zr112  O1845     1.13632      .   S
    Zr743  O1846     1.13632      .   S
    Zr113  O1846     1.13632      .   S
    Zr744  O1847     1.13632      .   S
    Zr114  O1847     1.13632      .   S
    Zr745  O1848     1.13632      .   S
    Zr115  O1848     1.13632  1_455   S
    Zr746  O1849     1.13632      .   S
    Zr116  O1849     1.13632  1_655   S
    Zr747  O1850     1.13632      .   S
    Zr117  O1850     1.13632      .   S
    Zr748  O1851     1.13632      .   S
    Zr118  O1851     1.13632      .   S
    Zr749  O1852     1.13632      .   S
    Zr119  O1852     1.13632      .   S
    Zr750  O1853     1.13632      .   S
    Zr120  O1853     1.13632      .   S
    Zr751  O1854     1.13632      .   S
    Zr121  O1854     1.13632      .   S
    Zr752  O1855     1.13632      .   S
    Zr122  O1855     1.13632      .   S
    N1857  O1858     0.93522      .   S
    Zr558  O1858     1.66175      .   S
    N1857  O1859     0.92459      .   S
    Zr603  O1859     1.63034      .   S
    N1860  O1861     0.91808      .   S
    Zr628  O1861     1.65722      .   S
    N1860  O1862     0.91199      .   S
    Zr763  O1862     1.65216      .   S
    N1864  O1865     0.91783      .   S
    Zr595  O1865     1.64747      .   S
    N1864  O1866     0.90775  1_556   S
    Zr730  O1866     1.64119      .   S
    N1867  O1868     1.18188      .   S
    Zr60   O1868     2.25653      .   S
    N1869  O1870     0.91247      .   S
    Zr488  O1870     1.65617      .   S
    N1869  O1871     0.90031      .   S
    Zr518  O1871     1.64557      .   S
    N1875  O1876     0.97762      .   S
    Zr3    O1876     1.96608      .   S
    N1877  O1878     0.95589      .   S
    Zr118  O1878     1.95326      .   S
    N1879  O1880     1.18188      .   S
    Zr0    O1880     2.25653      .   S
    N1882  O1883     0.95589      .   S
    Zr4    O1883     1.95326      .   S
    N1884  O1885     0.90031      .   S
    Zr31   O1885     1.64557      .   S
    N1884  O1886     0.91247      .   S
    Zr29   O1886     1.65617      .   S
    N1889  O1890     0.90814      .   S
    Zr544  O1890     1.65731      .   S
    N1889  O1891     0.90688      .   S
    Zr574  O1891     1.64796  1_556   S
    N1892  O1893     0.92459  1_554   S
    Zr610  O1893     1.63034      .   S
    N1892  O1894     0.93522      .   S
    Zr565  O1894     1.66175      .   S
    N1895  O1896     0.92459      .   S
    Zr614  O1896     1.63034      .   S
    N1895  O1897     0.93522      .   S
    Zr569  O1897     1.66175      .   S
    N1898  O1899     0.90031      .   S
    Zr514  O1899     1.64557      .   S
    N1898  O1900     0.91247  1_554   S
    Zr484  O1900     1.65617      .   S
    N1901  O1902     0.90031      .   S
    Zr519  O1902     1.64557      .   S
    N1901  O1903     0.91247      .   S
    Zr489  O1903     1.65617      .   S
    N1905  O1906     0.90814      .   S
    Zr33   O1906     1.65731      .   S
    N1905  O1907     0.90688      .   S
    Zr35   O1907     1.64796      .   S
    N1909  O1910     1.08535      .   S
    Zr1    O1910     2.15197      .   S
    N1911  O1912     0.91808      .   S
    Zr632  O1912     1.65722      .   S
    N1911  O1913     0.91199      .   S
    Zr767  O1913     1.65216      .   S
    N1914  O1915     0.93522      .   S
    Zr34   O1915     1.66175      .   S
    N1914  O1916     0.92459      .   S
    Zr37   O1916     1.63034      .   S
    N1917  O1918     0.91199      .   S
    Zr47   O1918     1.65216  1_655   S
    N1917  O1919     0.91808      .   S
    Zr38   O1919     1.65722      .   S
    N1920  O1921     0.91783      .   S
    Zr591  O1921     1.64747      .   S
    N1920  O1922     0.90775  1_556   S
    Zr726  O1922     1.64119      .   S
    N1923  O1924     0.90031      .   S
    Zr517  O1924     1.64557      .   S
    N1923  O1925     0.91247      .   S
    Zr487  O1925     1.65617      .   S
    N1926  O1927     0.91783      .   S
    Zr588  O1927     1.64747      .   S
    N1926  O1928     0.90775      .   S
    Zr723  O1928     1.64119      .   S
    N1929  O1930     0.91247      .   S
    Zr492  O1930     1.65617      .   S
    N1929  O1931     0.90031      .   S
    Zr522  O1931     1.64557      .   S
    N1932  O1933     0.91783      .   S
    Zr36   O1933     1.64747      .   S
    N1932  O1934     0.90775      .   S
    Zr45   O1934     1.64119      .   S
    N1935  O1936     0.90031      .   S
    Zr520  O1936     1.64557      .   S
    N1935  O1937     0.91247      .   S
    Zr490  O1937     1.65617      .   S
    N1938  O1939     1.08535      .   S
    Zr77   O1939     2.15197      .   S
    N1940  O1941     0.90031      .   S
    Zr516  O1941     1.64557      .   S
    N1940  O1942     0.91247      .   S
    Zr486  O1942     1.65617      .   S
    N1943  O1944     0.90031      .   S
    Zr513  O1944     1.64557      .   S
    N1943  O1945     0.91247      .   S
    Zr483  O1945     1.65617      .   S
    N1946  O1947     0.91247  1_554   S
    Zr497  O1947     1.65617      .   S
    N1946  O1948     0.90031      .   S
    Zr527  O1948     1.64557      .   S
    N1949  O1950     0.91808      .   S
    Zr620  O1950     1.65722      .   S
    N1949  O1951     0.91199      .   S
    Zr755  O1951     1.65216      .   S
    N1952  O1953     0.97762      .   S
    Zr99   O1953     1.96608      .   S
    N1954  O1955     0.91808      .   S
    Zr619  O1955     1.65722      .   S
    N1954  O1956     0.91199      .   S
    Zr754  O1956     1.65216      .   S
    N1960  O1961     0.91808      .   S
    Zr629  O1961     1.65722      .   S
    N1960  O1962     0.91199      .   S
    Zr764  O1962     1.65216      .   S
    N1963  O1964     0.93522      .   S
    Zr563  O1964     1.66175      .   S
    N1963  O1965     0.92459      .   S
    Zr608  O1965     1.63034      .   S
    N1967  O1968     0.95589      .   S
    Zr113  O1968     1.95326      .   S
    N1969  O1970     0.91808      .   S
    Zr627  O1970     1.65722      .   S
    N1969  O1971     0.91199      .   S
    Zr762  O1971     1.65216      .   S
    N1972  O1973     0.90688      .   S
    Zr581  O1973     1.64796      .   S
    N1972  O1974     0.90814      .   S
    Zr551  O1974     1.65731      .   S
    N1975  O1976     0.90688      .   S
    Zr580  O1976     1.64796      .   S
    N1975  O1977     0.90814      .   S
    Zr550  O1977     1.65731      .   S
    N1980  O1981     0.91199      .   S
    Zr753  O1981     1.65216  1_455   S
    N1980  O1982     0.91808      .   S
    Zr618  O1982     1.65722      .   S
    N1983  O1984     0.92459      .   S
    Zr612  O1984     1.63034      .   S
    N1983  O1985     0.93522      .   S
    Zr567  O1985     1.66175      .   S
    N1986  O1987     1.18188      .   S
    Zr58   O1987     2.25653      .   S
    N1991  O1992     1.18188      .   S
    Zr57   O1992     2.25653      .   S
    N1994  O1995     1.18188      .   S
    Zr54   O1995     2.25653      .   S
    N1997  O1998     0.91247  1_554   S
    Zr485  O1998     1.65617      .   S
    N1997  O1999     0.90031      .   S
    Zr515  O1999     1.64557      .   S
    N2001  O2002     1.08535      .   S
    Zr67   O2002     2.15197      .   S
    N2005  O2006     0.95589      .   S
    Zr109  O2006     1.95326      .   S
    N2008  O2009     0.91247      .   S
    Zr493  O2009     1.65617      .   S
    N2008  O2010     0.90031      .   S
    Zr523  O2010     1.64557      .   S
    N2014  O2015     0.91808      .   S
    Zr624  O2015     1.65722      .   S
    N2014  O2016     0.91199      .   S
    Zr759  O2016     1.65216      .   S
    N2017  O2018     0.90031      .   S
    Zr521  O2018     1.64557      .   S
    N2017  O2019     0.91247      .   S
    Zr491  O2019     1.65617      .   S
    N2021  O2022     1.18188      .   S
    Zr51   O2022     2.25653      .   S
    N2024  O2025     0.91199      .   S
    Zr766  O2025     1.65216      .   S
    N2024  O2026     0.91808      .   S
    Zr631  O2026     1.65722      .   S
    N2028  O2029     0.91199      .   S
    Zr758  O2029     1.65216      .   S
    N2028  O2030     0.91808      .   S
    Zr623  O2030     1.65722      .   S
    N2032  O2033     1.08535      .   S
    Zr68   O2033     2.15197      .   S
    N2036  O2037     0.90814      .   S
    Zr557  O2037     1.65731      .   S
    N2036  O2038     0.90688      .   S
    Zr587  O2038     1.64796  1_556   S
    N2039  O2040     1.08535      .   S
    Zr63   O2040     2.15197      .   S
    N2041  O2042     1.08535      .   S
    Zr75   O2042     2.15197      .   S
    N2043  O2044     1.08535      .   S
    Zr74   O2044     2.15197      .   S
    N2045  O2046     0.95589      .   S
    Zr108  O2046     1.95326      .   S
    N2047  O2048     0.95589      .   S
    Zr119  O2048     1.95326      .   S
    N2049  O2050     0.95589      .   S
    Zr120  O2050     1.95326      .   S
    N2051  O2052     0.90814      .   S
    Zr553  O2052     1.65731      .   S
    N2051  O2053     0.90688      .   S
    Zr583  O2053     1.64796      .   S
    N2054  O2055     0.90814      .   S
    Zr547  O2055     1.65731      .   S
    N2054  O2056     0.90688      .   S
    Zr577  O2056     1.64796      .   S
    N2059  O2060     0.90814      .   S
    Zr552  O2060     1.65731      .   S
    N2059  O2061     0.90688      .   S
    Zr582  O2061     1.64796      .   S
    N2065  O2066     0.95589      .   S
    Zr110  O2066     1.95326      .   S
    N2067  O2068     0.95589      .   S
    Zr121  O2068     1.95326      .   S
    N2069  O2070     0.95589      .   S
    Zr122  O2070     1.95326      .   S
    N2073  O2074     0.91199      .   S
    Zr760  O2074     1.65216  1_655   S
    N2073  O2075     0.91808      .   S
    Zr625  O2075     1.65722      .   S
    N2076  O2077     0.91808      .   S
    Zr622  O2077     1.65722      .   S
    N2076  O2078     0.91199      .   S
    Zr757  O2078     1.65216      .   S
    N2079  O2080     0.91808      .   S
    Zr626  O2080     1.65722      .   S
    N2079  O2081     0.91199      .   S
    Zr761  O2081     1.65216  1_455   S
    N2082  O2083     0.91199      .   S
    Zr756  O2083     1.65216      .   S
    N2082  O2084     0.91808      .   S
    Zr621  O2084     1.65722      .   S
    N2086  O2087     0.90688      .   S
    Zr578  O2087     1.64796      .   S
    N2086  O2088     0.90814      .   S
    Zr548  O2088     1.65731      .   S
    N2089  O2090     0.92459  1_554   S
    Zr611  O2090     1.63034      .   S
    N2089  O2091     0.93522      .   S
    Zr566  O2091     1.66175      .   S
    N2092  O2093     0.92459      .   S
    Zr613  O2093     1.63034      .   S
    N2092  O2094     0.93522      .   S
    Zr568  O2094     1.66175      .   S
    N2095  O2096     0.90814      .   S
    Zr545  O2096     1.65731      .   S
    N2095  O2097     0.90688      .   S
    Zr575  O2097     1.64796  1_556   S
    N2098  O2099     0.90814      .   S
    Zr549  O2099     1.65731      .   S
    N2098  O2100     0.90688      .   S
    Zr579  O2100     1.64796      .   S
    N2102  O2103     0.97762      .   S
    Zr95   O2103     1.96608      .   S
    N2107  O2108     1.08535      .   S
    Zr70   O2108     2.15197      .   S
    N2109  O2110     0.90775  1_556   S
    Zr727  O2110     1.64119      .   S
    N2109  O2111     0.91783      .   S
    Zr592  O2111     1.64747      .   S
    N2113  O2114     0.92459      .   S
    Zr617  O2114     1.63034      .   S
    N2113  O2115     0.93522      .   S
    Zr572  O2115     1.66175      .   S
    N2116  O2117     1.18188      .   S
    Zr62   O2117     2.25653      .   S
    N2118  O2119     0.97762      .   S
    Zr93   O2119     1.96608      .   S
    N2123  O2124     0.91783      .   S
    Zr602  O2124     1.64747      .   S
    N2123  O2125     0.90775      .   S
    Zr737  O2125     1.64119      .   S
    N2128  O2129     0.91783      .   S
    Zr600  O2129     1.64747      .   S
    N2128  O2130     0.90775      .   S
    Zr735  O2130     1.64119      .   S
    N2132  O2133     0.93522      .   S
    Zr562  O2133     1.66175      .   S
    N2132  O2134     0.92459  1_554   S
    Zr607  O2134     1.63034      .   S
    N2135  O2136     0.92459      .   S
    Zr609  O2136     1.63034      .   S
    N2135  O2137     0.93522      .   S
    Zr564  O2137     1.66175      .   S
    N2138  O2139     1.18188      .   S
    Zr50   O2139     2.25653      .   S
    N2141  O2142     0.91247      .   S
    Zr495  O2142     1.65617      .   S
    N2141  O2143     0.90031      .   S
    Zr525  O2143     1.64557      .   S
    N2144  O2145     1.18188      .   S
    Zr61   O2145     2.25653      .   S
    N2146  O2147     0.97762      .   S
    Zr107  O2147     1.96608      .   S
    N2148  O2149     0.90688      .   S
    Zr573  O2149     1.64796      .   S
    N2148  O2150     0.90814      .   S
    Zr543  O2150     1.65731      .   S
    N2152  O2153     1.18188      .   S
    Zr55   O2153     2.25653      .   S
    N2154  O2155     1.18188      .   S
    Zr56   O2155     2.25653      .   S
    N2157  O2158     0.90814      .   S
    Zr554  O2158     1.65731      .   S
    N2157  O2159     0.90688      .   S
    Zr584  O2159     1.64796      .   S
    N2160  O2161     0.93522      .   S
    Zr561  O2161     1.66175      .   S
    N2160  O2162     0.92459  1_554   S
    Zr606  O2162     1.63034      .   S
    N2164  O2165     0.90688      .   S
    Zr586  O2165     1.64796  1_556   S
    N2164  O2166     0.90814      .   S
    Zr556  O2166     1.65731      .   S
    N2167  O2168     0.92459      .   S
    Zr605  O2168     1.63034      .   S
    N2167  O2169     0.93522      .   S
    Zr560  O2169     1.66175      .   S
    N2170  O2171     0.97762      .   S
    Zr94   O2171     1.96608      .   S
    N2173  O2174     1.08535      .   S
    Zr71   O2174     2.15197      .   S
    N2175  O2176     0.90688      .   S
    Zr576  O2176     1.64796      .   S
    N2175  O2177     0.90814      .   S
    Zr546  O2177     1.65731      .   S
    N2178  O2179     1.18188      .   S
    Zr53   O2179     2.25653      .   S
    N2182  O2183     0.97762      .   S
    Zr105  O2183     1.96608      .   S
    N2184  O2185     1.08535      .   S
    Zr69   O2185     2.15197      .   S
    N2187  O2188     0.90775      .   S
    Zr724  O2188     1.64119      .   S
    N2187  O2189     0.91783      .   S
    Zr589  O2189     1.64747      .   S
    N2190  O2191     1.18188      .   S
    Zr49   O2191     2.25653      .   S
    N2192  O2193     0.97762      .   S
    Zr100  O2193     1.96608      .   S
    N2196  O2197     0.93522      .   S
    Zr559  O2197     1.66175      .   S
    N2196  O2198     0.92459      .   S
    Zr604  O2198     1.63034      .   S
    N2201  O2202     0.93522      .   S
    Zr571  O2202     1.66175      .   S
    N2201  O2203     0.92459      .   S
    Zr616  O2203     1.63034      .   S
    N2204  O2205     0.91783      .   S
    Zr594  O2205     1.64747      .   S
    N2204  O2206     0.90775      .   S
    Zr729  O2206     1.64119      .   S
    N2208  O2209     0.90775      .   S
    Zr736  O2209     1.64119      .   S
    N2208  O2210     0.91783      .   S
    Zr601  O2210     1.64747      .   S
    N2212  O2213     0.97762      .   S
    Zr97   O2213     1.96608      .   S
    N2214  O2215     0.91199      .   S
    Zr765  O2215     1.65216      .   S
    N2214  O2216     0.91808      .   S
    Zr630  O2216     1.65722      .   S
    N2217  O2218     0.97762      .   S
    Zr101  O2218     1.96608      .   S
    N2220  O2221     0.95589      .   S
    Zr112  O2221     1.95326      .   S
    N2223  O2224     0.97762      .   S
    Zr104  O2224     1.96608      .   S
    N2225  O2226     0.91783      .   S
    Zr593  O2226     1.64747      .   S
    N2225  O2227     0.90775      .   S
    Zr728  O2227     1.64119      .   S
    N2228  O2229     0.90775      .   S
    Zr734  O2229     1.64119      .   S
    N2228  O2230     0.91783      .   S
    Zr599  O2230     1.64747      .   S
    N2233  O2234     0.95589      .   S
    Zr117  O2234     1.95326      .   S
    N2235  O2236     0.92459      .   S
    Zr615  O2236     1.63034      .   S
    N2235  O2237     0.93522      .   S
    Zr570  O2237     1.66175      .   S
    N2241  O2242     0.91783      .   S
    Zr597  O2242     1.64747      .   S
    N2241  O2243     0.90775      .   S
    Zr732  O2243     1.64119      .   S
    N2245  O2246     0.90775      .   S
    Zr725  O2246     1.64119      .   S
    N2245  O2247     0.91783      .   S
    Zr590  O2247     1.64747      .   S
    N2248  O2249     0.90031      .   S
    Zr526  O2249     1.64557      .   S
    N2248  O2250     0.91247  1_554   S
    Zr496  O2250     1.65617      .   S
    N2257  O2258     0.91783      .   S
    Zr596  O2258     1.64747      .   S
    N2257  O2259     0.90775  1_556   S
    Zr731  O2259     1.64119      .   S
    N2260  O2261     1.18188      .   S
    Zr52   O2261     2.25653      .   S
    N2265  O2266     1.08535      .   S
    Zr66   O2266     2.15197      .   S
    N2267  O2268     1.18188      .   S
    Zr59   O2268     2.25653      .   S
    N2269  O2270     0.95589      .   S
    Zr114  O2270     1.95326      .   S
    N2273  O2274     0.95589      .   S
    Zr115  O2274     1.95326      .   S
    N2276  O2277     0.95589      .   S
    Zr116  O2277     1.95326      .   S
    N2278  O2279     1.08535      .   S
    Zr64   O2279     2.15197      .   S
    N2280  O2281     0.97762      .   S
    Zr98   O2281     1.96608      .   S
    N2282  O2283     0.91783      .   S
    Zr598  O2283     1.64747      .   S
    N2282  O2284     0.90775      .   S
    Zr733  O2284     1.64119      .   S
    N2286  O2287     0.97762      .   S
    Zr103  O2287     1.96608      .   S
    N2290  O2291     0.91247      .   S
    Zr494  O2291     1.65617      .   S
    N2290  O2292     0.90031      .   S
    Zr524  O2292     1.64557      .   S
    N2295  O2296     0.90688      .   S
    Zr585  O2296     1.64796      .   S
    N2295  O2297     0.90814      .   S
    Zr555  O2297     1.65731      .   S
    N2300  O2301     0.95589      .   S
    Zr111  O2301     1.95326      .   S
    N2303  O2304     1.08535      .   S
    Zr72   O2304     2.15197      .   S
    N2305  O2306     0.97762      .   S
    Zr102  O2306     1.96608      .   S
    N2307  O2308     1.08535      .   S
    Zr73   O2308     2.15197      .   S
    N2311  O2312     0.97762      .   S
    Zr106  O2312     1.96608      .   S
    N2314  O2315     1.18188      .   S
    Zr48   O2315     2.25653      .   S
    N2320  O2321     0.97762      .   S
    Zr96   O2321     1.96608      .   S
    N2331  O2332     1.08535      .   S
    Zr76   O2332     2.15197      .   S
    N2339  O2340     1.08535      .   S
    Zr65   O2340     2.15197      .   S
