# CIF file generated by openbabel 3.1.0, see https://openbabel.org
data_I
_chemical_name_common ''
_cell_length_a 19.2889
_cell_length_b 10.6546
_cell_length_c 18.3662
_cell_angle_alpha 89.995
_cell_angle_beta 89.9771
_cell_angle_gamma 83.8106
_space_group_name_H-M_alt 'P 1'
_space_group_name_Hall 'P 1'
loop_
    _symmetry_equiv_pos_as_xyz
    x,y,z
loop_
    _atom_site_label
    _atom_site_type_symbol
    _atom_site_fract_x
    _atom_site_fract_y
    _atom_site_fract_z
    _atom_site_occupancy
    C0       C        0.61725    0.17506    0.99984    1.000
    C1       C        0.57330    0.28854    0.99983    1.000
    C2       C        0.50084    0.28663    0.99982    1.000
    C3       C        0.47233    0.17122    0.99981    1.000
    C4       C        0.51630    0.05772    0.99983    1.000
    C5       C        0.58875    0.05965    0.99984    1.000
    C6       C        0.36348    0.08050    0.95736    1.000
    C7       C        0.29103    0.07859    0.95734    1.000
    C8       C        0.24885    0.16529    0.99977    1.000
    C9       C        0.27914    0.25394    0.04220    1.000
    C10      C        0.35159    0.25585    0.04222    1.000
    C11      C        0.39377    0.16913    0.99980    1.000
    C12      C        0.12633    0.27670    0.99975    1.000
    C13      C        0.05387    0.27478    0.99974    1.000
    C14      C        0.06933    0.04587    0.99974    1.000
    C15      C        0.14179    0.04780    0.99975    1.000
    C16      C        0.17028    0.16322    0.99975    1.000
    C17      C        0.82323    0.79820    0.99979    1.000
    C18      C        0.88547    0.71738    0.99978    1.000
    C19      C        0.88355    0.58640    0.99977    1.000
    C20      C        0.75714    0.61707    0.99980    1.000
    C21      C        0.75906    0.74805    0.99980    1.000
    C22      C        0.95845    0.69967    0.99977    1.000
    C23      C        0.95653    0.56869    0.99976    1.000
    C24      C        0.02537    0.15937    0.99974    1.000
    C25      C        0.81939    0.53624    0.99979    1.000
    N26      N        0.82129    0.16720    0.18846    1.000
    N27      N        0.82134    0.16722    0.81113    1.000
    C28      C        0.86811    0.08160    0.22655    1.000
    C29      C        0.86811    0.08160    0.30278    1.000
    C30      C        0.82130    0.16721    0.34091    1.000
    C31      C        0.77447    0.25282    0.30281    1.000
    C32      C        0.77446    0.25281    0.22659    1.000
    C33      C        0.81275    0.28163    0.46168    1.000
    C34      C        0.81276    0.28164    0.53790    1.000
    C35      C        0.82132    0.16723    0.57602    1.000
    C36      C        0.82988    0.05280    0.53791    1.000
    C37      C        0.82987    0.05280    0.46168    1.000
    C38      C        0.82130    0.16723    0.42357    1.000
    C39      C        0.86815    0.08162    0.69677    1.000
    C40      C        0.86815    0.08161    0.77299    1.000
    C41      C        0.77451    0.25284    0.77303    1.000
    C42      C        0.77451    0.25284    0.69680    1.000
    C43      C        0.82133    0.16723    0.65868    1.000
    H44      H        0.26637    0.00641    0.92279    1.000
    O45      O        0.68793    0.56298    0.99981    1.000
    H46      H        0.65799    0.59547    0.04917    1.000
    H47      H        0.98168    0.73480    0.05205    1.000
    H48      H        0.70838    0.81384    0.99980    1.000
    H49      H        0.98700    0.72842    0.94908    1.000
    H50      H        0.17757    0.95539    0.99976    1.000
    O51      O        0.00646    0.39719    0.99974    1.000
    H52      H        0.95129    0.37647    0.99974    1.000
    O53      O        0.72401    0.34517    0.65572    1.000
    H54      H        0.68999    0.29246    0.62102    1.000
    H55      H        0.80580    0.37481    0.56893    1.000
    O56      O        0.83912    0.92938    0.57901    1.000
    H57      H        0.79640    0.87213    0.56440    1.000
    H58      H        0.04612    0.95191    0.99969    1.000
    O59      O        0.40897    0.98699    0.91160    1.000
    H60      H        0.37574    0.92504    0.88208    1.000
    H61      H        0.73639    0.32254    0.80408    1.000
    H62      H        0.97859    0.52258    0.94747    1.000
    O63      O        0.91864    0.98927    0.65563    1.000
    H64      H        0.95120    0.92973    0.69493    1.000
    O65      O        0.48556    0.93325    0.99982    1.000
    H66      H        0.42779    0.95098    0.99980    1.000
    O67      O        0.91861    0.98927    0.18543    1.000
    H68      H        0.88907    0.92837    0.15072    1.000
    H69      H        0.90628    0.01190    0.80401    1.000
    H70      H        0.98402    0.52634    0.05044    1.000
    O71      O        0.80353    0.40504    0.42056    1.000
    H72      H        0.79759    0.48461    0.45986    1.000
    H73      H        0.83684    0.95963    0.43065    1.000
    O74      O        0.72398    0.34517    0.34394    1.000
    H75      H        0.73186    0.33080    0.40334    1.000
    O76      O        0.91862    0.98929    0.34388    1.000
    H77      H        0.95119    0.92976    0.30456    1.000
    H78      H        0.62454    0.96723    0.99985    1.000
    H79      H        0.59649    0.38253    0.99983    1.000
    O80      O        0.23365    0.34745    0.08797    1.000
    H81      H        0.24101    0.44487    0.07051    1.000
    O82      O        0.45342    0.40903    0.99980    1.000
    H83      H        0.48540    0.48960    0.99980    1.000
    O84      O        0.38427    0.35141    0.08802    1.000
    H85      H        0.34277    0.41136    0.11753    1.000
    H86      H        0.73633    0.32252    0.19557    1.000
    H87      H        0.14953    0.37068    0.99976    1.000
loop_
    _geom_bond_atom_site_label_1
    _geom_bond_atom_site_label_2
    _geom_bond_distance
    _geom_bond_site_symmetry_2
    _ccdc_geom_bond_type
    N27    C40       1.39996      .   S
    N27    C41       1.40008      .   S
    H60    O59       1.10994      .   S
    O59    C6        1.51005  1_565   S
    H44    C7        1.13994      .   S
    H62    C23       1.13998      .   S
    H49    C22       1.13999      .   S
    C7     C6        1.39996      .   S
    C7     C8        1.40001      .   S
    C6     C11       1.39985      .   S
    H58    C14       1.13989  1_565   S
    C24    C14       1.40008      .   S
    C24    C13       1.39994      .   S
    O51    H52       1.10995  1_455   S
    O51    C13       1.50997      .   S
    C14    C15       1.40001      .   S
    C13    C12       1.40005      .   S
    C12    C16       1.39992      .   S
    C12    H87       1.13997      .   S
    C16    C15       1.40002      .   S
    C16    C8        1.51803      .   S
    C15    H50       1.13990  1_545   S
    C23    C22       1.40002      .   S
    C23    C19       1.39998      .   S
    C23    H70       1.14001  1_556   S
    C22    C18       1.39998      .   S
    C22    H47       1.13993  1_556   S
    C8     C9        1.40007  1_556   S
    C19    C18       1.40002      .   S
    C19    C25       1.39999      .   S
    C18    C17       1.39994      .   S
    C25    C20       1.40006      .   S
    C17    C21       1.40000      .   S
    C11    C3        1.51804      .   S
    C11    C10       1.40008  1_556   S
    C21    C20       1.39999      .   S
    C21    H48       1.13991      .   S
    H66    O65       1.10993      .   S
    C20    O45       1.50998      .   S
    H83    O82       1.10993      .   S
    O82    C2        1.51002      .   S
    O45    H46       1.10993  1_556   S
    C3     C2        1.39997      .   S
    C3     C4        1.40010      .   S
    O65    C4        1.50995  1_565   S
    C2     C1        1.40002      .   S
    H79    C1        1.13993      .   S
    C4     C5        1.39999      .   S
    C1     C0        1.39988      .   S
    C0     C5        1.40002      .   S
    C5     H78       1.13993  1_545   S
    C9     C10       1.39999      .   S
    C9     O80       1.51002      .   S
    C10    O84       1.50998      .   S
    H81    O80       1.10995      .   S
    O84    H85       1.10994      .   S
    H68    O67       1.10995      .   S
    O67    C28       1.50998  1_565   S
    N26    C28       1.39987      .   S
    N26    C32       1.40001      .   S
    H86    C32       1.13992      .   S
    C28    C29       1.40002      .   S
    C32    C31       1.40000      .   S
    C29    C30       1.39999      .   S
    C29    O76       1.51003  1_545   S
    C31    C30       1.40009      .   S
    C31    O74       1.50995      .   S
    H77    O76       1.10994      .   S
    C30    C38       1.51806      .   S
    O74    H75       1.10994      .   S
    O71    H72       1.10993      .   S
    O71    C33       1.51006      .   S
    C38    C33       1.39984      .   S
    C38    C37       1.40008      .   S
    H73    C37       1.13994  1_565   S
    C33    C34       1.39994      .   S
    C37    C36       1.40000      .   S
    C34    H55       1.13995      .   S
    C34    C35       1.40000      .   S
    C36    C35       1.40007      .   S
    C36    O56       1.51001  1_545   S
    H57    O56       1.10994      .   S
    C35    C43       1.51804      .   S
    H54    O53       1.10995      .   S
    O63    H64       1.10996      .   S
    O63    C39       1.51002  1_565   S
    O53    C42       1.50994      .   S
    C43    C39       1.39991      .   S
    C43    C42       1.40001      .   S
    C39    C40       1.40004      .   S
    C42    C41       1.40002      .   S
    C40    H69       1.13993      .   S
    C41    H61       1.13987      .   S
