# CIF file generated by openbabel 3.1.0, see https://openbabel.org
data_I
_chemical_name_common ''
_cell_length_a 19.2889
_cell_length_b 10.6546
_cell_length_c 18.3662
_cell_angle_alpha 89.995
_cell_angle_beta 89.9771
_cell_angle_gamma 83.8106
_space_group_name_H-M_alt 'P 1'
_space_group_name_Hall 'P 1'
loop_
    _symmetry_equiv_pos_as_xyz
    x,y,z
loop_
    _atom_site_label
    _atom_site_type_symbol
    _atom_site_fract_x
    _atom_site_fract_y
    _atom_site_fract_z
    _atom_site_occupancy
    O0       O        0.72026    0.17779    0.93927    1.000
    O1       O        0.82596    0.98438    0.93924    1.000
    O2       O        0.81667    0.35006    0.93924    1.000
    O3       O        0.82595    0.98438    0.06034    1.000
    O4       O        0.72024    0.17778    0.06037    1.000
    O5       O        0.92236    0.15665    0.06032    1.000
    Zn6      Zn       0.82130    0.16721    0.07957    1.000
    Zn7      Zn       0.82132    0.16722    0.92002    1.000
    O8       O        0.81665    0.35005    0.06034    1.000
    C9       C        0.69437    0.17711    0.99982    1.000
    C10      C        0.61725    0.17506    0.99984    1.000
    C11      C        0.57330    0.28854    0.99983    1.000
    C12      C        0.50084    0.28663    0.99982    1.000
    C13      C        0.47233    0.17122    0.99981    1.000
    C14      C        0.51630    0.05772    0.99983    1.000
    C15      C        0.58875    0.05965    0.99984    1.000
    C16      C        0.36348    0.08050    0.95736    1.000
    C17      C        0.29103    0.07859    0.95734    1.000
    C18      C        0.24885    0.16529    0.99977    1.000
    C19      C        0.27914    0.25394    0.04220    1.000
    C20      C        0.35159    0.25585    0.04222    1.000
    C21      C        0.39377    0.16913    0.99980    1.000
    C22      C        0.12633    0.27670    0.99975    1.000
    C23      C        0.05387    0.27478    0.99974    1.000
    C24      C        0.06933    0.04587    0.99974    1.000
    C25      C        0.14179    0.04780    0.99975    1.000
    C26      C        0.17028    0.16322    0.99975    1.000
    C27      C        0.82527    0.93760    0.99979    1.000
    C28      C        0.82323    0.79820    0.99979    1.000
    C29      C        0.88547    0.71738    0.99978    1.000
    O30      O        0.92238    0.15666    0.93922    1.000
    C31      C        0.88355    0.58640    0.99977    1.000
    C32      C        0.75714    0.61707    0.99980    1.000
    C33      C        0.75906    0.74805    0.99980    1.000
    C34      C        0.95845    0.69967    0.99977    1.000
    C35      C        0.95653    0.56869    0.99976    1.000
    C36      C        0.94825    0.15733    0.99976    1.000
    C37      C        0.02537    0.15937    0.99974    1.000
    C38      C        0.81734    0.39684    0.99979    1.000
    C39      C        0.81939    0.53624    0.99979    1.000
    N40      N        0.82129    0.16720    0.18846    1.000
    N41      N        0.82134    0.16722    0.81113    1.000
    C42      C        0.86811    0.08160    0.22655    1.000
    C43      C        0.86811    0.08160    0.30278    1.000
    C44      C        0.82130    0.16721    0.34091    1.000
    C45      C        0.77447    0.25282    0.30281    1.000
    C46      C        0.77446    0.25281    0.22659    1.000
    C47      C        0.81275    0.28163    0.46168    1.000
    C48      C        0.81276    0.28164    0.53790    1.000
    C49      C        0.82132    0.16723    0.57602    1.000
    C50      C        0.82988    0.05280    0.53791    1.000
    C51      C        0.82987    0.05280    0.46168    1.000
    C52      C        0.82130    0.16723    0.42357    1.000
    C53      C        0.86815    0.08162    0.69677    1.000
    C54      C        0.86815    0.08161    0.77299    1.000
    C55      C        0.77451    0.25284    0.77303    1.000
    C56      C        0.77451    0.25284    0.69680    1.000
    C57      C        0.82133    0.16723    0.65868    1.000
    H58      H        0.26637    0.00641    0.92279    1.000
    O59      O        0.68793    0.56298    0.99981    1.000
    H60      H        0.65799    0.59547    0.04917    1.000
    H61      H        0.98168    0.73480    0.05205    1.000
    H62      H        0.70838    0.81384    0.99980    1.000
    H63      H        0.98700    0.72842    0.94908    1.000
    H64      H        0.17757    0.95539    0.99976    1.000
    O65      O        0.00646    0.39719    0.99974    1.000
    H66      H        0.95129    0.37647    0.99974    1.000
    O67      O        0.72401    0.34517    0.65572    1.000
    H68      H        0.68999    0.29246    0.62102    1.000
    H69      H        0.80580    0.37481    0.56893    1.000
    O70      O        0.83912    0.92938    0.57901    1.000
    H71      H        0.79640    0.87213    0.56440    1.000
    H72      H        0.04612    0.95191    0.99969    1.000
    O73      O        0.40897    0.98699    0.91160    1.000
    H74      H        0.37574    0.92504    0.88208    1.000
    H75      H        0.73639    0.32254    0.80408    1.000
    H76      H        0.97859    0.52258    0.94747    1.000
    O77      O        0.91864    0.98927    0.65563    1.000
    H78      H        0.95120    0.92973    0.69493    1.000
    O79      O        0.48556    0.93325    0.99982    1.000
    H80      H        0.42779    0.95098    0.99980    1.000
    O81      O        0.91861    0.98927    0.18543    1.000
    H82      H        0.88907    0.92837    0.15072    1.000
    H83      H        0.90628    0.01190    0.80401    1.000
    H84      H        0.98402    0.52634    0.05044    1.000
    O85      O        0.80353    0.40504    0.42056    1.000
    H86      H        0.79759    0.48461    0.45986    1.000
    H87      H        0.83684    0.95963    0.43065    1.000
    O88      O        0.72398    0.34517    0.34394    1.000
    H89      H        0.73186    0.33080    0.40334    1.000
    O90      O        0.91862    0.98929    0.34388    1.000
    H91      H        0.95119    0.92976    0.30456    1.000
    H92      H        0.62454    0.96723    0.99985    1.000
    H93      H        0.59649    0.38253    0.99983    1.000
    O94      O        0.23365    0.34745    0.08797    1.000
    H95      H        0.24101    0.44487    0.07051    1.000
    O96      O        0.45342    0.40903    0.99980    1.000
    H97      H        0.48540    0.48960    0.99980    1.000
    O98      O        0.38427    0.35141    0.08802    1.000
    H99      H        0.34277    0.41136    0.11753    1.000
    H100     H        0.73633    0.32252    0.19557    1.000
    H101     H        0.14953    0.37068    0.99976    1.000
loop_
    _geom_bond_atom_site_label_1
    _geom_bond_atom_site_label_2
    _geom_bond_distance
    _geom_bond_site_symmetry_2
    _ccdc_geom_bond_type
    N41    Zn7       1.99991      .   S
    N41    C54       1.39996      .   S
    N41    C55       1.40008      .   S
    H74    O73       1.10994      .   S
    O73    C16       1.51005  1_565   S
    Zn7    O30       1.97233      .   S
    Zn7    O2        1.97233      .   S
    Zn7    O1        1.97232  1_545   S
    Zn7    O0        1.97232      .   S
    H58    C17       1.13994      .   S
    O30    C36       1.21929      .   S
    O2     C38       1.21932      .   S
    O1     C27       1.21929      .   S
    O0     C9        1.21932      .   S
    H76    C35       1.13998      .   S
    H63    C34       1.13999      .   S
    C17    C16       1.39996      .   S
    C17    C18       1.40001      .   S
    C16    C21       1.39985      .   S
    H72    C24       1.13989  1_565   S
    C37    C24       1.40008      .   S
    C37    C23       1.39994      .   S
    C37    C36       1.49000  1_455   S
    O65    H66       1.10995  1_455   S
    O65    C23       1.50997      .   S
    C24    C25       1.40001      .   S
    C23    C22       1.40005      .   S
    C22    C26       1.39992      .   S
    C22    H101      1.13997      .   S
    C26    C25       1.40002      .   S
    C26    C18       1.51803      .   S
    C25    H64       1.13990  1_545   S
    C36    O5        1.21935  1_556   S
    C35    C34       1.40002      .   S
    C35    C31       1.39998      .   S
    C35    H84       1.14001  1_556   S
    C34    C29       1.39998      .   S
    C34    H61       1.13993  1_556   S
    C18    C19       1.40007  1_556   S
    C31    C29       1.40002      .   S
    C31    C39       1.39999      .   S
    C29    C28       1.39994      .   S
    C39    C38       1.49000      .   S
    C39    C32       1.40006      .   S
    C38    O8        1.21931  1_556   S
    C28    C27       1.48999      .   S
    C28    C33       1.40000      .   S
    C27    O3        1.21934  1_556   S
    C21    C13       1.51804      .   S
    C21    C20       1.40008  1_556   S
    C33    C32       1.39999      .   S
    C33    H62       1.13991      .   S
    H80    O79       1.10993      .   S
    C32    O59       1.50998      .   S
    H97    O96       1.10993      .   S
    O96    C12       1.51002      .   S
    O59    H60       1.10993  1_556   S
    C13    C12       1.39997      .   S
    C13    C14       1.40010      .   S
    O79    C14       1.50995  1_565   S
    C12    C11       1.40002      .   S
    C9     C10       1.49000      .   S
    C9     O4        1.21933  1_556   S
    H93    C11       1.13993      .   S
    C14    C15       1.39999      .   S
    C11    C10       1.39988      .   S
    C10    C15       1.40002      .   S
    C15    H92       1.13993  1_545   S
    C19    C20       1.39999      .   S
    C19    O94       1.51002      .   S
    C20    O98       1.50998      .   S
    O5     Zn6       1.97232      .   S
    O8     Zn6       1.97232      .   S
    O3     Zn6       1.97232  1_565   S
    O4     Zn6       1.97231      .   S
    H95    O94       1.10995      .   S
    Zn6    N40       1.99991      .   S
    O98    H99       1.10994      .   S
    H82    O81       1.10995      .   S
    O81    C42       1.50998  1_565   S
    N40    C42       1.39987      .   S
    N40    C46       1.40001      .   S
    H100   C46       1.13992      .   S
    C42    C43       1.40002      .   S
    C46    C45       1.40000      .   S
    C43    C44       1.39999      .   S
    C43    O90       1.51003  1_545   S
    C45    C44       1.40009      .   S
    C45    O88       1.50995      .   S
    H91    O90       1.10994      .   S
    C44    C52       1.51806      .   S
    O88    H89       1.10994      .   S
    O85    H86       1.10993      .   S
    O85    C47       1.51006      .   S
    C52    C47       1.39984      .   S
    C52    C51       1.40008      .   S
    H87    C51       1.13994  1_565   S
    C47    C48       1.39994      .   S
    C51    C50       1.40000      .   S
    C48    H69       1.13995      .   S
    C48    C49       1.40000      .   S
    C50    C49       1.40007      .   S
    C50    O70       1.51001  1_545   S
    H71    O70       1.10994      .   S
    C49    C57       1.51804      .   S
    H68    O67       1.10995      .   S
    O77    H78       1.10996      .   S
    O77    C53       1.51002  1_565   S
    O67    C56       1.50994      .   S
    C57    C53       1.39991      .   S
    C57    C56       1.40001      .   S
    C53    C54       1.40004      .   S
    C56    C55       1.40002      .   S
    C54    H83       1.13993      .   S
    C55    H75       1.13987      .   S
    Zn6    Zn7       2.93040  1_554   S
