# CIF file generated by openbabel 3.1.0, see https://openbabel.org
data_I
_chemical_name_common ''
_cell_length_a 19.2889
_cell_length_b 10.6546
_cell_length_c 18.3662
_cell_angle_alpha 89.995
_cell_angle_beta 89.9771
_cell_angle_gamma 83.8106
_space_group_name_H-M_alt 'P 1'
_space_group_name_Hall 'P 1'
loop_
    _symmetry_equiv_pos_as_xyz
    x,y,z
loop_
    _atom_site_label
    _atom_site_type_symbol
    _atom_site_fract_x
    _atom_site_fract_y
    _atom_site_fract_z
    _atom_site_occupancy
    O0       O        0.72026    0.17779    0.93927    1.000
    O1       O        0.82596    0.98438    0.93924    1.000
    O2       O        0.81667    0.35006    0.93924    1.000
    O3       O        0.82595    0.98438    0.06034    1.000
    O4       O        0.72024    0.17778    0.06037    1.000
    O5       O        0.92236    0.15665    0.06032    1.000
    Zn6      Zn       0.82130    0.16721    0.07957    1.000
    Zn7      Zn       0.82132    0.16722    0.92002    1.000
    O8       O        0.81665    0.35005    0.06034    1.000
    C9       C        0.69437    0.17711    0.99982    1.000
    C10      C        0.82527    0.93760    0.99979    1.000
    O11      O        0.92238    0.15666    0.93922    1.000
    C12      C        0.94825    0.15733    0.99976    1.000
    C13      C        0.81734    0.39684    0.99979    1.000
    Ts14     Ts       0.82129    0.16721    0.11587    1.000
    Ts15     Ts       0.82133    0.16722    0.88372    1.000
    Og16     Og       0.66866    0.17642    0.99983    1.000
    Og17     Og       0.82459    0.89113    0.99979    1.000
    Og18     Og       0.97396    0.15801    0.99975    1.000
    Og19     Og       0.81802    0.44331    0.99979    1.000
loop_
    _geom_bond_atom_site_label_1
    _geom_bond_atom_site_label_2
    _geom_bond_distance
    _geom_bond_site_symmetry_2
    _ccdc_geom_bond_type
    Zn7    O11       1.97233      .   S
    Zn7    O2        1.97233      .   S
    Zn7    O1        1.97232  1_545   S
    Zn7    O0        1.97232      .   S
    O11    C12       1.21929      .   S
    O2     C13       1.21932      .   S
    O1     C10       1.21929      .   S
    O0     C9        1.21932      .   S
    C12    O5        1.21935  1_556   S
    C13    O8        1.21931  1_556   S
    C10    O3        1.21934  1_556   S
    C9     O4        1.21933  1_556   S
    O5     Zn6       1.97232      .   S
    O8     Zn6       1.97232      .   S
    O3     Zn6       1.97232  1_565   S
    O4     Zn6       1.97231      .   S
    Zn6    Zn7       2.93040  1_554   S
    Zn6    Ts14      0.66664      .   S
    Zn7    Ts15      0.66664      .   S
    C9     Og16      0.49667      .   S
    C10    Og17      0.49666      .   S
    C12    Og18      0.49667      .   S
    C13    Og19      0.49667      .   S
