# CIF file generated by openbabel 2.4.90, see http://openbabel.sf.net
data_I
_chemical_name_common ''
_cell_length_a 20.7004
_cell_length_b 20.7004
_cell_length_c 20.7004
_cell_angle_alpha 90
_cell_angle_beta 90
_cell_angle_gamma 90
_space_group_name_H-M_alt 'P 1'
_space_group_name_Hall 'P 1'
loop_
    _symmetry_equiv_pos_as_xyz
    x,y,z
loop_
    _atom_site_label
    _atom_site_type_symbol
    _atom_site_fract_x
    _atom_site_fract_y
    _atom_site_fract_z
    _atom_site_occupancy
    C0      C    0.20500   0.00000   0.20500   1.000
    C1      C    0.26750   0.00000   0.18440   1.000
    C2      C    0.00000   0.26750   0.81560   1.000
    C3      C    0.00000   0.73250   0.81560   1.000
    C4      C    0.00000   0.73250   0.18440   1.000
    C5      C    0.20500   0.50000   0.29500   1.000
    C6      C    0.20500   0.70500   0.50000   1.000
    C7      C    0.20500   0.29500   0.50000   1.000
    C8      C    0.00000   0.18440   0.26750   1.000
    C9      C    0.00000   0.18440   0.73250   1.000
    C10     C    0.00000   0.81560   0.73250   1.000
    C11     C    0.00000   0.81560   0.26750   1.000
    C12     C    0.79500   0.00000   0.20500   1.000
    C13     C    0.79500   0.00000   0.79500   1.000
    C14     C    0.20500   0.00000   0.79500   1.000
    C15     C    0.20500   0.20500   0.00000   1.000
    C16     C    0.20500   0.79500   0.00000   1.000
    C17     C    0.79500   0.79500   0.00000   1.000
    C18     C    0.79500   0.20500   0.00000   1.000
    C19     C    0.00000   0.20500   0.20500   1.000
    C20     C    0.00000   0.20500   0.79500   1.000
    C21     C    0.00000   0.79500   0.79500   1.000
    C22     C    0.00000   0.79500   0.20500   1.000
    C23     C    0.20500   0.50000   0.70500   1.000
    C24     C    0.79500   0.50000   0.70500   1.000
    C25     C    0.79500   0.50000   0.29500   1.000
    C26     C    0.79500   0.29500   0.50000   1.000
    C27     C    0.79500   0.70500   0.50000   1.000
    C28     C    0.00000   0.70500   0.70500   1.000
    C29     C    0.00000   0.70500   0.29500   1.000
    C30     C    0.00000   0.29500   0.29500   1.000
    C31     C    0.00000   0.29500   0.70500   1.000
    C32     C    0.70500   0.00000   0.70500   1.000
    C33     C    0.29500   0.00000   0.70500   1.000
    C34     C    0.29500   0.00000   0.29500   1.000
    C35     C    0.70500   0.00000   0.29500   1.000
    C36     C    0.70500   0.20500   0.50000   1.000
    C37     C    0.70500   0.79500   0.50000   1.000
    C38     C    0.29500   0.79500   0.50000   1.000
    C39     C    0.29500   0.20500   0.50000   1.000
    C40     C    0.50000   0.20500   0.70500   1.000
    C41     C    0.50000   0.20500   0.29500   1.000
    C42     C    0.50000   0.79500   0.29500   1.000
    C43     C    0.50000   0.79500   0.70500   1.000
    C44     C    0.70500   0.50000   0.20500   1.000
    C45     C    0.29500   0.50000   0.20500   1.000
    C46     C    0.29500   0.50000   0.79500   1.000
    C47     C    0.70500   0.50000   0.79500   1.000
    C48     C    0.70500   0.70500   0.00000   1.000
    C49     C    0.70500   0.29500   0.00000   1.000
    C50     C    0.29500   0.29500   0.00000   1.000
    C51     C    0.29500   0.70500   0.00000   1.000
    C52     C    0.50000   0.70500   0.20500   1.000
    C53     C    0.50000   0.70500   0.79500   1.000
    C54     C    0.50000   0.29500   0.79500   1.000
    C55     C    0.50000   0.29500   0.20500   1.000
    C56     C    0.73250   0.00000   0.18440   1.000
    C57     C    0.73250   0.00000   0.81560   1.000
    C58     C    0.26750   0.00000   0.81560   1.000
    C59     C    0.18440   0.26750   0.00000   1.000
    C60     C    0.18440   0.73250   0.00000   1.000
    C61     C    0.81560   0.73250   0.00000   1.000
    C62     C    0.81560   0.26750   0.00000   1.000
    C63     C    0.00000   0.26750   0.18440   1.000
    C64     C    0.26750   0.18440   0.00000   1.000
    C65     C    0.73250   0.18440   0.00000   1.000
    C66     C    0.73250   0.81560   0.00000   1.000
    C67     C    0.26750   0.81560   0.00000   1.000
    C68     C    0.18440   0.00000   0.73250   1.000
    C69     C    0.18440   0.00000   0.26750   1.000
    C70     C    0.81560   0.00000   0.26750   1.000
    C71     C    0.81560   0.00000   0.73250   1.000
    C72     C    0.26750   0.50000   0.68440   1.000
    C73     C    0.73250   0.50000   0.68440   1.000
    C74     C    0.73250   0.50000   0.31560   1.000
    C75     C    0.26750   0.50000   0.31560   1.000
    C76     C    0.18440   0.76750   0.50000   1.000
    C77     C    0.18440   0.23250   0.50000   1.000
    C78     C    0.81560   0.23250   0.50000   1.000
    C79     C    0.81560   0.76750   0.50000   1.000
    C80     C    0.00000   0.68440   0.76750   1.000
    C81     C    0.00000   0.68440   0.23250   1.000
    C82     C    0.00000   0.31560   0.23250   1.000
    C83     C    0.00000   0.31560   0.76750   1.000
    C84     C    0.00000   0.76750   0.31560   1.000
    C85     C    0.00000   0.23250   0.31560   1.000
    C86     C    0.00000   0.23250   0.68440   1.000
    C87     C    0.00000   0.76750   0.68440   1.000
    C88     C    0.26750   0.68440   0.50000   1.000
    C89     C    0.73250   0.68440   0.50000   1.000
    C90     C    0.73250   0.31560   0.50000   1.000
    C91     C    0.26750   0.31560   0.50000   1.000
    C92     C    0.18440   0.50000   0.23250   1.000
    C93     C    0.18440   0.50000   0.76750   1.000
    C94     C    0.81560   0.50000   0.76750   1.000
    C95     C    0.81560   0.50000   0.23250   1.000
    C96     C    0.76750   0.00000   0.68440   1.000
    C97     C    0.23250   0.00000   0.68440   1.000
    C98     C    0.23250   0.00000   0.31560   1.000
    C99     C    0.76750   0.00000   0.31560   1.000
    C100    C    0.68440   0.26750   0.50000   1.000
    C101    C    0.68440   0.73250   0.50000   1.000
    C102    C    0.31560   0.73250   0.50000   1.000
    C103    C    0.31560   0.26750   0.50000   1.000
    C104    C    0.50000   0.18440   0.76750   1.000
    C105    C    0.50000   0.18440   0.23250   1.000
    C106    C    0.50000   0.81560   0.23250   1.000
    C107    C    0.50000   0.81560   0.76750   1.000
    C108    C    0.50000   0.26750   0.31560   1.000
    C109    C    0.50000   0.73250   0.31560   1.000
    C110    C    0.50000   0.73250   0.68440   1.000
    C111    C    0.50000   0.26750   0.68440   1.000
    C112    C    0.76750   0.18440   0.50000   1.000
    C113    C    0.23250   0.18440   0.50000   1.000
    C114    C    0.23250   0.81560   0.50000   1.000
    C115    C    0.76750   0.81560   0.50000   1.000
    C116    C    0.68440   0.00000   0.23250   1.000
    C117    C    0.68440   0.00000   0.76750   1.000
    C118    C    0.31560   0.00000   0.76750   1.000
    C119    C    0.31560   0.00000   0.23250   1.000
    C120    C    0.76750   0.50000   0.18440   1.000
    C121    C    0.23250   0.50000   0.18440   1.000
    C122    C    0.23250   0.50000   0.81560   1.000
    C123    C    0.76750   0.50000   0.81560   1.000
    C124    C    0.68440   0.76750   0.00000   1.000
    C125    C    0.68440   0.23250   0.00000   1.000
    C126    C    0.31560   0.23250   0.00000   1.000
    C127    C    0.31560   0.76750   0.00000   1.000
    C128    C    0.50000   0.68440   0.26750   1.000
    C129    C    0.50000   0.68440   0.73250   1.000
    C130    C    0.50000   0.31560   0.73250   1.000
    C131    C    0.50000   0.31560   0.26750   1.000
    C132    C    0.50000   0.76750   0.81560   1.000
    C133    C    0.50000   0.23250   0.81560   1.000
    C134    C    0.50000   0.23250   0.18440   1.000
    C135    C    0.50000   0.76750   0.18440   1.000
    C136    C    0.76750   0.68440   0.00000   1.000
    C137    C    0.23250   0.68440   0.00000   1.000
    C138    C    0.23250   0.31560   0.00000   1.000
    C139    C    0.76750   0.31560   0.00000   1.000
    C140    C    0.68440   0.50000   0.73250   1.000
    C141    C    0.68440   0.50000   0.26750   1.000
    C142    C    0.31560   0.50000   0.26750   1.000
    C143    C    0.31560   0.50000   0.73250   1.000
loop_
    _geom_bond_atom_site_label_1
    _geom_bond_atom_site_label_2
    _geom_bond_distance
    _geom_bond_site_symmetry_2
    _ccdc_geom_bond_type
    C18    C62       1.36224      .   S
    C18    C65       1.36224      .   S
    C48    C124      1.36224      .   S
    C48    C136      1.36224      .   S
    C49    C139      1.36224      .   S
    C49    C125      1.36224      .   S
    C50    C138      1.36224      .   S
    C50    C126      1.36224      .   S
    C51    C137      1.36224      .   S
    C51    C127      1.36224      .   S
    C59    C138      1.40812      .   S
    C59    C15       1.36224      .   S
    C60    C137      1.40812      .   S
    C60    C16       1.36224      .   S
    C61    C136      1.40812      .   S
    C61    C17       1.36224      .   S
    C62    C139      1.40812      .   S
    C67    C127      1.40812      .   S
    C67    C16       1.36224      .   S
    C66    C124      1.40812      .   S
    C66    C17       1.36224      .   S
    C65    C125      1.40812      .   S
    C126   C64       1.40812      .   S
    C64    C15       1.36224      .   S
    C134   C55       1.36224      .   S
    C134   C105      1.40812      .   S
    C4     C22       1.36224      .   S
    C4     C81       1.40812      .   S
    C63    C19       1.36224      .   S
    C63    C82       1.40812      .   S
    C135   C52       1.36224      .   S
    C135   C106      1.40812      .   S
    C121   C45       1.36224      .   S
    C121   C92       1.40812      .   S
    C56    C12       1.36224      .   S
    C56    C116      1.40812      .   S
    C120   C44       1.36224      .   S
    C120   C95       1.40812      .   S
    C1     C0        1.36224      .   S
    C1     C119      1.40812      .   S
    C22    C11       1.36224      .   S
    C19    C8        1.36224      .   S
    C0     C69       1.36224      .   S
    C55    C131      1.36224      .   S
    C52    C128      1.36224      .   S
    C12    C70       1.36224      .   S
    C44    C141      1.36224      .   S
    C45    C142      1.36224      .   S
    C116   C35       1.36224      .   S
    C82    C30       1.36224      .   S
    C119   C34       1.36224      .   S
    C81    C29       1.36224      .   S
    C105   C41       1.36224      .   S
    C106   C42       1.36224      .   S
    C95    C25       1.36224      .   S
    C92    C5        1.36224      .   S
    C11    C84       1.40812      .   S
    C70    C99       1.40812      .   S
    C69    C98       1.40812      .   S
    C8     C85       1.40812      .   S
    C142   C75       1.40812      .   S
    C131   C108      1.40812      .   S
    C128   C109      1.40812      .   S
    C141   C74       1.40812      .   S
    C25    C74       1.36224      .   S
    C42    C109      1.36224      .   S
    C41    C108      1.36224      .   S
    C5     C75       1.36224      .   S
    C35    C99       1.36224      .   S
    C29    C84       1.36224      .   S
    C34    C98       1.36224      .   S
    C30    C85       1.36224      .   S
    C76    C114      1.40812      .   S
    C76    C6        1.36224      .   S
    C77    C113      1.40812      .   S
    C77    C7        1.36224      .   S
    C78    C112      1.40812      .   S
    C78    C26       1.36224      .   S
    C79    C115      1.40812      .   S
    C79    C27       1.36224      .   S
    C88    C102      1.40812      .   S
    C88    C6        1.36224      .   S
    C89    C101      1.40812      .   S
    C89    C27       1.36224      .   S
    C102   C38       1.36224      .   S
    C112   C36       1.36224      .   S
    C113   C39       1.36224      .   S
    C39    C103      1.36224      .   S
    C38    C114      1.36224      .   S
    C37    C115      1.36224      .   S
    C37    C101      1.36224      .   S
    C103   C91       1.40812      .   S
    C36    C100      1.36224      .   S
    C100   C90       1.40812      .   S
    C91    C7        1.36224      .   S
    C90    C26       1.36224      .   S
    C87    C28       1.36224      .   S
    C87    C10       1.40812      .   S
    C72    C23       1.36224      .   S
    C72    C143      1.40812      .   S
    C86    C31       1.36224      .   S
    C86    C9        1.40812      .   S
    C73    C24       1.36224      .   S
    C73    C140      1.40812      .   S
    C96    C32       1.36224      .   S
    C96    C71       1.40812      .   S
    C97    C33       1.36224      .   S
    C97    C68       1.40812      .   S
    C110   C43       1.36224      .   S
    C110   C129      1.40812      .   S
    C111   C40       1.36224      .   S
    C111   C130      1.40812      .   S
    C23    C93       1.36224      .   S
    C43    C107      1.36224      .   S
    C24    C94       1.36224      .   S
    C28    C80       1.36224      .   S
    C31    C83       1.36224      .   S
    C32    C117      1.36224      .   S
    C33    C118      1.36224      .   S
    C40    C104      1.36224      .   S
    C130   C54       1.36224      .   S
    C129   C53       1.36224      .   S
    C71    C13       1.36224      .   S
    C140   C47       1.36224      .   S
    C143   C46       1.36224      .   S
    C68    C14       1.36224      .   S
    C9     C20       1.36224      .   S
    C10    C21       1.36224      .   S
    C80    C3        1.40812      .   S
    C83    C2        1.40812      .   S
    C117   C57       1.40812      .   S
    C107   C132      1.40812      .   S
    C118   C58       1.40812      .   S
    C104   C133      1.40812      .   S
    C94    C123      1.40812      .   S
    C93    C122      1.40812      .   S
    C46    C122      1.36224      .   S
    C47    C123      1.36224      .   S
    C53    C132      1.36224      .   S
    C54    C133      1.36224      .   S
    C13    C57       1.36224      .   S
    C14    C58       1.36224      .   S
    C21    C3        1.36224      .   S
    C20    C2        1.36224      .   S
