# CIF file generated by openbabel 2.4.90, see http://openbabel.sf.net
data_I
_chemical_name_common ''
_cell_length_a 20.7004
_cell_length_b 20.7004
_cell_length_c 20.7004
_cell_angle_alpha 90
_cell_angle_beta 90
_cell_angle_gamma 90
_space_group_name_H-M_alt 'P 1'
_space_group_name_Hall 'P 1'
loop_
    _symmetry_equiv_pos_as_xyz
    x,y,z
loop_
    _atom_site_label
    _atom_site_type_symbol
    _atom_site_fract_x
    _atom_site_fract_y
    _atom_site_fract_z
    _atom_site_occupancy
    C0      C    0.15360   0.00000   0.84640   1.000
    C1      C    0.50000   0.34640   0.84640   1.000
    C2      C    0.50000   0.65360   0.84640   1.000
    C3      C    0.84640   0.00000   0.84640   1.000
    C4      C    0.84640   0.00000   0.15360   1.000
    C5      C    0.15360   0.00000   0.15360   1.000
    C6      C    0.84640   0.15360   0.00000   1.000
    C7      C    0.84640   0.84640   0.00000   1.000
    C8      C    0.15360   0.84640   0.00000   1.000
    C9      C    0.15360   0.15360   0.00000   1.000
    C10     C    0.00000   0.84640   0.15360   1.000
    C11     C    0.00000   0.84640   0.84640   1.000
    C12     C    0.00000   0.15360   0.84640   1.000
    C13     C    0.00000   0.15360   0.15360   1.000
    C14     C    0.15360   0.50000   0.34640   1.000
    C15     C    0.84640   0.50000   0.34640   1.000
    C16     C    0.84640   0.50000   0.65360   1.000
    C17     C    0.15360   0.50000   0.65360   1.000
    C18     C    0.84640   0.65360   0.50000   1.000
    C19     C    0.84640   0.34640   0.50000   1.000
    C20     C    0.15360   0.34640   0.50000   1.000
    C21     C    0.15360   0.65360   0.50000   1.000
    C22     C    0.00000   0.34640   0.65360   1.000
    C23     C    0.00000   0.34640   0.34640   1.000
    C24     C    0.00000   0.65360   0.34640   1.000
    C25     C    0.00000   0.65360   0.65360   1.000
    C26     C    0.65360   0.00000   0.34640   1.000
    C27     C    0.34640   0.00000   0.34640   1.000
    C28     C    0.34640   0.00000   0.65360   1.000
    C29     C    0.65360   0.00000   0.65360   1.000
    C30     C    0.34640   0.15360   0.50000   1.000
    C31     C    0.34640   0.84640   0.50000   1.000
    C32     C    0.65360   0.84640   0.50000   1.000
    C33     C    0.65360   0.15360   0.50000   1.000
    C34     C    0.50000   0.84640   0.65360   1.000
    C35     C    0.50000   0.84640   0.34640   1.000
    C36     C    0.50000   0.15360   0.34640   1.000
    C37     C    0.50000   0.15360   0.65360   1.000
    C38     C    0.65360   0.50000   0.84640   1.000
    C39     C    0.34640   0.50000   0.84640   1.000
    C40     C    0.34640   0.50000   0.15360   1.000
    C41     C    0.65360   0.50000   0.15360   1.000
    C42     C    0.34640   0.65360   0.00000   1.000
    C43     C    0.34640   0.34640   0.00000   1.000
    C44     C    0.65360   0.34640   0.00000   1.000
    C45     C    0.65360   0.65360   0.00000   1.000
    C46     C    0.50000   0.34640   0.15360   1.000
    C47     C    0.50000   0.65360   0.15360   1.000
