# CIF file generated by openbabel 2.4.90, see http://openbabel.sf.net
data_I
_chemical_name_common 'I'
_cell_length_a 24.057
_cell_length_b 24.057
_cell_length_c 26.996
_cell_angle_alpha 90
_cell_angle_beta 90
_cell_angle_gamma 120
_space_group_name_H-M_alt 'P 1'
_space_group_name_Hall 'P 1'
loop_
    _symmetry_equiv_pos_as_xyz
    x,y,z
loop_
    _atom_site_label
    _atom_site_type_symbol
    _atom_site_fract_x
    _atom_site_fract_y
    _atom_site_fract_z
    _atom_site_occupancy
    C0      C    0.48770   0.34584   0.09106   1.000
    C1      C    0.45320   0.27333   0.09428   1.000
    C2      C    0.42618   0.23695   0.05099   1.000
    C3      C    0.44580   0.24208   0.13816   1.000
    C4      C    0.41248   0.17550   0.13970   1.000
    C5      C    0.38370   0.13940   0.09776   1.000
    C6      C    0.39360   0.17184   0.05329   1.000
    C7      C    0.34415   0.06780   0.09920   1.000
    C8      C    0.36143   0.03123   0.12795   1.000
    C9      C    0.32598   0.96419   0.12539   1.000
    C10     C    0.27373   0.93264   0.09423   1.000
    C11     C    0.25564   0.96995   0.06694   1.000
    C12     C    0.29003   0.03602   0.06944   1.000
    C13     C    0.23843   0.86207   0.08916   1.000
    C14     C    0.17178   0.82822   0.08330   1.000
    C15     C    0.27162   0.82833   0.08888   1.000
    C16     C    0.23855   0.76145   0.08330   1.000
    C17     C    0.27450   0.72550   0.08330   1.000
    C18     C    0.33013   0.74699   0.11080   1.000
    C19     C    0.36340   0.71332   0.11057   1.000
    C20     C    0.34212   0.65788   0.08330   1.000
    C21     C    0.37772   0.62228   0.08330   1.000
    C22     C    0.41267   0.62256   0.12458   1.000
    C23     C    0.48159   0.51841   0.08330   1.000
    C24     C    0.44576   0.55424   0.08330   1.000
    C25     C    0.44591   0.58901   0.12588   1.000
    C26     C    0.50502   0.48319   0.87528   1.000
    C27     C    0.44964   0.43649   0.85602   1.000
    C28     C    0.53379   0.48932   0.92589   1.000
    C29     C    0.65416   0.14186   0.75773   1.000
    C30     C    0.85814   0.51230   0.42439   1.000
    C31     C    0.51230   0.65416   0.59106   1.000
    C32     C    0.34584   0.85814   0.25773   1.000
    C33     C    0.14186   0.48770   0.92439   1.000
    C34     C    0.34584   0.48770   0.57561   1.000
    C35     C    0.14186   0.65416   0.90894   1.000
    C36     C    0.51230   0.85814   0.24227   1.000
    C37     C    0.65416   0.51230   0.07561   1.000
    C38     C    0.85814   0.34584   0.40894   1.000
    C39     C    0.48770   0.14186   0.74227   1.000
    C40     C    0.72667   0.17987   0.76095   1.000
    C41     C    0.82013   0.54680   0.42761   1.000
    C42     C    0.54680   0.72667   0.59428   1.000
    C43     C    0.27333   0.82013   0.26095   1.000
    C44     C    0.17987   0.45320   0.92761   1.000
    C45     C    0.27333   0.45320   0.57239   1.000
    C46     C    0.17987   0.72667   0.90572   1.000
    C47     C    0.54680   0.82013   0.23905   1.000
    C48     C    0.72667   0.54680   0.07239   1.000
    C49     C    0.82013   0.27333   0.40572   1.000
    C50     C    0.45320   0.17987   0.73905   1.000
    C51     C    0.76305   0.18923   0.71766   1.000
    C52     C    0.81077   0.57382   0.38432   1.000
    C53     C    0.57382   0.76305   0.55099   1.000
    C54     C    0.23695   0.81077   0.21766   1.000
    C55     C    0.18923   0.42618   0.88432   1.000
    C56     C    0.23695   0.42618   0.61568   1.000
    C57     C    0.18923   0.76305   0.94901   1.000
    C58     C    0.57382   0.81077   0.28234   1.000
    C59     C    0.76305   0.57382   0.11568   1.000
    C60     C    0.81077   0.23695   0.44901   1.000
    C61     C    0.42618   0.18923   0.78234   1.000
    C62     C    0.75792   0.20372   0.80483   1.000
    C63     C    0.79628   0.55420   0.47149   1.000
    C64     C    0.55420   0.75792   0.63816   1.000
    C65     C    0.24208   0.79628   0.30483   1.000
    C66     C    0.20372   0.44580   0.97149   1.000
    C67     C    0.24208   0.44580   0.52851   1.000
    C68     C    0.20372   0.75792   0.86184   1.000
    C69     C    0.55420   0.79628   0.19517   1.000
    C70     C    0.75792   0.55420   0.02851   1.000
    C71     C    0.79628   0.24208   0.36184   1.000
    C72     C    0.44580   0.20372   0.69517   1.000
    C73     C    0.82450   0.23698   0.80637   1.000
    C74     C    0.76302   0.58752   0.47303   1.000
    C75     C    0.58752   0.82450   0.63970   1.000
    C76     C    0.17550   0.76302   0.30637   1.000
    C77     C    0.23698   0.41248   0.97303   1.000
    C78     C    0.17550   0.41248   0.52697   1.000
    C79     C    0.23698   0.82450   0.86030   1.000
    C80     C    0.58752   0.76302   0.19363   1.000
    C81     C    0.82450   0.58752   0.02697   1.000
    C82     C    0.76302   0.17550   0.36030   1.000
    C83     C    0.41248   0.23698   0.69363   1.000
    C84     C    0.86060   0.24430   0.76443   1.000
    C85     C    0.75570   0.61630   0.43109   1.000
    C86     C    0.61630   0.86060   0.59776   1.000
    C87     C    0.13940   0.75570   0.26443   1.000
    C88     C    0.24430   0.38370   0.93109   1.000
    C89     C    0.13940   0.38370   0.56891   1.000
    C90     C    0.24430   0.86060   0.90224   1.000
    C91     C    0.61630   0.75570   0.23557   1.000
    C92     C    0.86060   0.61630   0.06891   1.000
    C93     C    0.75570   0.13940   0.40224   1.000
    C94     C    0.38370   0.24430   0.73557   1.000
    C95     C    0.82816   0.22176   0.71996   1.000
    C96     C    0.77824   0.60640   0.38662   1.000
    C97     C    0.60640   0.82816   0.55329   1.000
    C98     C    0.17184   0.77824   0.21996   1.000
    C99     C    0.22176   0.39360   0.88662   1.000
    C100    C    0.17184   0.39360   0.61338   1.000
    C101    C    0.22176   0.82816   0.94671   1.000
    C102    C    0.60640   0.77824   0.28004   1.000
    C103    C    0.82816   0.60640   0.11338   1.000
    C104    C    0.77824   0.17184   0.44671   1.000
    C105    C    0.39360   0.22176   0.78004   1.000
    C106    C    0.93220   0.27635   0.76587   1.000
    C107    C    0.72365   0.65585   0.43253   1.000
    C108    C    0.65585   0.93220   0.59920   1.000
    C109    C    0.06780   0.72365   0.26587   1.000
    C110    C    0.27635   0.34415   0.93253   1.000
    C111    C    0.06780   0.34415   0.56747   1.000
    C112    C    0.27635   0.93220   0.90080   1.000
    C113    C    0.65585   0.72365   0.23413   1.000
    C114    C    0.93220   0.65585   0.06747   1.000
    C115    C    0.72365   0.06780   0.40080   1.000
    C116    C    0.34415   0.27635   0.73413   1.000
    C117    C    0.96877   0.33020   0.79462   1.000
    C118    C    0.66980   0.63857   0.46128   1.000
    C119    C    0.63857   0.96877   0.62795   1.000
    C120    C    0.03123   0.66980   0.29462   1.000
    C121    C    0.33020   0.36143   0.96128   1.000
    C122    C    0.03123   0.36143   0.53872   1.000
    C123    C    0.33020   0.96877   0.87205   1.000
    C124    C    0.63857   0.66980   0.20538   1.000
    C125    C    0.96877   0.63857   0.03872   1.000
    C126    C    0.66980   0.03123   0.37205   1.000
    C127    C    0.36143   0.33020   0.70538   1.000
    C128    C    0.03581   0.36179   0.79206   1.000
    C129    C    0.63821   0.67402   0.45872   1.000
    C130    C    0.67402   0.03581   0.62539   1.000
    C131    C    0.96419   0.63821   0.29206   1.000
    C132    C    0.36179   0.32598   0.95872   1.000
    C133    C    0.96419   0.32598   0.54128   1.000
    C134    C    0.36179   0.03581   0.87461   1.000
    C135    C    0.67402   0.63821   0.20794   1.000
    C136    C    0.03581   0.67402   0.04128   1.000
    C137    C    0.63821   0.96419   0.37461   1.000
    C138    C    0.32598   0.36179   0.70794   1.000
    C139    C    0.06736   0.34109   0.76090   1.000
    C140    C    0.65891   0.72627   0.42756   1.000
    C141    C    0.72627   0.06736   0.59423   1.000
    C142    C    0.93264   0.65891   0.26090   1.000
    C143    C    0.34109   0.27373   0.92756   1.000
    C144    C    0.93264   0.27373   0.57244   1.000
    C145    C    0.34109   0.06736   0.90577   1.000
    C146    C    0.72627   0.65891   0.23910   1.000
    C147    C    0.06736   0.72627   0.07244   1.000
    C148    C    0.65891   0.93264   0.40577   1.000
    C149    C    0.27373   0.34109   0.73910   1.000
    C150    C    0.03005   0.28569   0.73361   1.000
    C151    C    0.71431   0.74436   0.40027   1.000
    C152    C    0.74436   0.03005   0.56694   1.000
    C153    C    0.96995   0.71431   0.23361   1.000
    C154    C    0.28569   0.25564   0.90027   1.000
    C155    C    0.96995   0.25564   0.59973   1.000
    C156    C    0.28569   0.03005   0.93306   1.000
    C157    C    0.74436   0.71431   0.26639   1.000
    C158    C    0.03005   0.74436   0.09973   1.000
    C159    C    0.71431   0.96995   0.43306   1.000
    C160    C    0.25564   0.28569   0.76639   1.000
    C161    C    0.96398   0.25401   0.73611   1.000
    C162    C    0.74599   0.70997   0.40277   1.000
    C163    C    0.70997   0.96398   0.56944   1.000
    C164    C    0.03602   0.74599   0.23611   1.000
    C165    C    0.25401   0.29003   0.90277   1.000
    C166    C    0.03602   0.29003   0.59723   1.000
    C167    C    0.25401   0.96398   0.93056   1.000
    C168    C    0.70997   0.74599   0.26389   1.000
    C169    C    0.96398   0.70997   0.09723   1.000
    C170    C    0.74599   0.03602   0.43056   1.000
    C171    C    0.29003   0.25401   0.76389   1.000
    C172    C    0.13793   0.37636   0.75583   1.000
    C173    C    0.62364   0.76157   0.42249   1.000
    C174    C    0.76157   0.13793   0.58916   1.000
    C175    C    0.86207   0.62364   0.25583   1.000
    C176    C    0.37636   0.23843   0.92249   1.000
    C177    C    0.86207   0.23843   0.57751   1.000
    C178    C    0.37636   0.13793   0.91084   1.000
    C179    C    0.76157   0.62364   0.24417   1.000
    C180    C    0.13793   0.76157   0.07751   1.000
    C181    C    0.62364   0.86207   0.41084   1.000
    C182    C    0.23843   0.37636   0.74417   1.000
    C183    C    0.17178   0.34356   0.74997   1.000
    C184    C    0.65644   0.82822   0.41663   1.000
    C185    C    0.82822   0.17178   0.58330   1.000
    C186    C    0.82822   0.65644   0.24997   1.000
    C187    C    0.34356   0.17178   0.91663   1.000
    C188    C    0.17167   0.44329   0.75555   1.000
    C189    C    0.55671   0.72838   0.42221   1.000
    C190    C    0.72838   0.17167   0.58888   1.000
    C191    C    0.82833   0.55671   0.25555   1.000
    C192    C    0.44329   0.27162   0.92221   1.000
    C193    C    0.82833   0.27162   0.57779   1.000
    C194    C    0.44329   0.17167   0.91112   1.000
    C195    C    0.72838   0.55671   0.24445   1.000
    C196    C    0.17167   0.72838   0.07779   1.000
    C197    C    0.55671   0.82833   0.41112   1.000
    C198    C    0.27162   0.44329   0.74445   1.000
    C199    C    0.23855   0.47710   0.74997   1.000
    C200    C    0.52290   0.76145   0.41663   1.000
    C201    C    0.76145   0.23855   0.58330   1.000
    C202    C    0.76145   0.52290   0.24997   1.000
    C203    C    0.47710   0.23855   0.91663   1.000
    C204    C    0.27450   0.54900   0.74997   1.000
    C205    C    0.45100   0.72550   0.41663   1.000
    C206    C    0.72550   0.27450   0.58330   1.000
    C207    C    0.72550   0.45100   0.24997   1.000
    C208    C    0.54900   0.27450   0.91663   1.000
    C209    C    0.25301   0.58314   0.77747   1.000
    C210    C    0.41686   0.66987   0.44413   1.000
    C211    C    0.66987   0.25301   0.61080   1.000
    C212    C    0.74699   0.41686   0.27747   1.000
    C213    C    0.58314   0.33013   0.94413   1.000
    C214    C    0.74699   0.33013   0.55587   1.000
    C215    C    0.58314   0.25301   0.88920   1.000
    C216    C    0.66987   0.41686   0.22253   1.000
    C217    C    0.25301   0.66987   0.05587   1.000
    C218    C    0.41686   0.74699   0.38920   1.000
    C219    C    0.33013   0.58314   0.72253   1.000
    C220    C    0.28668   0.65008   0.77724   1.000
    C221    C    0.34992   0.63660   0.44390   1.000
    C222    C    0.63660   0.28668   0.61057   1.000
    C223    C    0.71332   0.34992   0.27724   1.000
    C224    C    0.65008   0.36340   0.94390   1.000
    C225    C    0.71332   0.36340   0.55610   1.000
    C226    C    0.65008   0.28668   0.88943   1.000
    C227    C    0.63660   0.34992   0.22276   1.000
    C228    C    0.28668   0.63660   0.05610   1.000
    C229    C    0.34992   0.71332   0.38943   1.000
    C230    C    0.36340   0.65008   0.72276   1.000
    C231    C    0.34212   0.68424   0.74997   1.000
    C232    C    0.31576   0.65788   0.41663   1.000
    C233    C    0.65788   0.34212   0.58330   1.000
    C234    C    0.65788   0.31576   0.24997   1.000
    C235    C    0.68424   0.34212   0.91663   1.000
    C236    C    0.37772   0.75544   0.74997   1.000
    C237    C    0.24456   0.62228   0.41663   1.000
    C238    C    0.62228   0.37772   0.58330   1.000
    C239    C    0.62228   0.24456   0.24997   1.000
    C240    C    0.75544   0.37772   0.91663   1.000
    C241    C    0.37744   0.79011   0.79125   1.000
    C242    C    0.20989   0.58733   0.45791   1.000
    C243    C    0.58733   0.37744   0.62458   1.000
    C244    C    0.62256   0.20989   0.29125   1.000
    C245    C    0.79011   0.41267   0.95791   1.000
    C246    C    0.62256   0.41267   0.54209   1.000
    C247    C    0.79011   0.37744   0.87542   1.000
    C248    C    0.58733   0.20989   0.20875   1.000
    C249    C    0.37744   0.58733   0.04209   1.000
    C250    C    0.20989   0.62256   0.37542   1.000
    C251    C    0.41267   0.79011   0.70875   1.000
    C252    C    0.48159   0.96318   0.74997   1.000
    C253    C    0.03682   0.51841   0.41663   1.000
    C254    C    0.51841   0.48159   0.58330   1.000
    C255    C    0.51841   0.03682   0.24997   1.000
    C256    C    0.96318   0.48159   0.91663   1.000
    C257    C    0.44576   0.89152   0.74997   1.000
    C258    C    0.10848   0.55424   0.41663   1.000
    C259    C    0.55424   0.44576   0.58330   1.000
    C260    C    0.55424   0.10848   0.24997   1.000
    C261    C    0.89152   0.44576   0.91663   1.000
    C262    C    0.41099   0.85690   0.79255   1.000
    C263    C    0.14310   0.55409   0.45921   1.000
    C264    C    0.55409   0.41099   0.62588   1.000
    C265    C    0.58901   0.14310   0.29255   1.000
    C266    C    0.85690   0.44591   0.95921   1.000
    C267    C    0.58901   0.44591   0.54079   1.000
    C268    C    0.85690   0.41099   0.87412   1.000
    C269    C    0.55409   0.14310   0.20745   1.000
    C270    C    0.41099   0.55409   0.04079   1.000
    C271    C    0.14310   0.58901   0.37412   1.000
    C272    C    0.44591   0.85690   0.70745   1.000
    C273    C    0.51681   0.02183   0.54195   1.000
    C274    C    0.97817   0.49498   0.20861   1.000
    C275    C    0.49498   0.51681   0.37528   1.000
    C276    C    0.48319   0.97817   0.04195   1.000
    C277    C    0.02183   0.50502   0.70861   1.000
    C278    C    0.48319   0.50502   0.79139   1.000
    C279    C    0.02183   0.51681   0.12472   1.000
    C280    C    0.49498   0.97817   0.45805   1.000
    C281    C    0.51681   0.49498   0.29139   1.000
    C282    C    0.97817   0.48319   0.62472   1.000
    C283    C    0.50502   0.02183   0.95805   1.000
    C284    C    0.56351   0.01315   0.52269   1.000
    C285    C    0.98685   0.55036   0.18935   1.000
    C286    C    0.55036   0.56351   0.35602   1.000
    C287    C    0.43649   0.98685   0.02269   1.000
    C288    C    0.01315   0.44964   0.68935   1.000
    C289    C    0.43649   0.44964   0.81065   1.000
    C290    C    0.01315   0.56351   0.14398   1.000
    C291    C    0.55036   0.98685   0.47731   1.000
    C292    C    0.56351   0.55036   0.31065   1.000
    C293    C    0.98685   0.43649   0.64398   1.000
    C294    C    0.44964   0.01315   0.97731   1.000
    C295    C    0.51068   0.04447   0.59256   1.000
    C296    C    0.95553   0.46621   0.25922   1.000
    C297    C    0.46621   0.51068   0.42589   1.000
    C298    C    0.48932   0.95553   0.09256   1.000
    C299    C    0.04447   0.53379   0.75922   1.000
    C300    C    0.48932   0.53379   0.74078   1.000
    C301    C    0.04447   0.51068   0.07411   1.000
    C302    C    0.46621   0.95553   0.40744   1.000
    C303    C    0.51068   0.46621   0.24078   1.000
    C304    C    0.95553   0.48932   0.57411   1.000
    C305    C    0.53379   0.04447   0.90744   1.000
    H306    H    0.43070   0.25750   0.02090   1.000
    H307    H    0.46310   0.26550   0.16710   1.000
    H308    H    0.40940   0.15480   0.16950   1.000
    H309    H    0.37750   0.14840   0.02420   1.000
    H310    H    0.39660   0.05120   0.14900   1.000
    H311    H    0.33790   0.94020   0.14520   1.000
    H312    H    0.21970   0.95000   0.04660   1.000
    H313    H    0.27670   0.05980   0.05080   1.000
    H314    H    0.14950   0.85050   0.08330   1.000
    H315    H    0.31600   0.85040   0.09240   1.000
    H316    H    0.34550   0.78420   0.12960   1.000
    H317    H    0.40070   0.72860   0.12920   1.000
    H318    H    0.41380   0.64610   0.15230   1.000
    H319    H    0.46800   0.58940   0.15430   1.000
    H320    H    0.42280   0.39850   0.87270   1.000
    H321    H    0.74250   0.17320   0.68757   1.000
    H322    H    0.82680   0.56930   0.35423   1.000
    H323    H    0.56930   0.74250   0.52090   1.000
    H324    H    0.25750   0.82680   0.18757   1.000
    H325    H    0.17320   0.43070   0.85423   1.000
    H326    H    0.25750   0.43070   0.64577   1.000
    H327    H    0.17320   0.74250   0.97910   1.000
    H328    H    0.56930   0.82680   0.31243   1.000
    H329    H    0.74250   0.56930   0.14577   1.000
    H330    H    0.82680   0.25750   0.47910   1.000
    H331    H    0.43070   0.17320   0.81243   1.000
    H332    H    0.73450   0.19760   0.83377   1.000
    H333    H    0.80240   0.53690   0.50043   1.000
    H334    H    0.53690   0.73450   0.66710   1.000
    H335    H    0.26550   0.80240   0.33377   1.000
    H336    H    0.19760   0.46310   0.00043   1.000
    H337    H    0.26550   0.46310   0.49957   1.000
    H338    H    0.19760   0.73450   0.83290   1.000
    H339    H    0.53690   0.80240   0.16623   1.000
    H340    H    0.73450   0.53690   0.99957   1.000
    H341    H    0.80240   0.26550   0.33290   1.000
    H342    H    0.46310   0.19760   0.66623   1.000
    H343    H    0.84520   0.25460   0.83617   1.000
    H344    H    0.74540   0.59060   0.50283   1.000
    H345    H    0.59060   0.84520   0.66950   1.000
    H346    H    0.15480   0.74540   0.33617   1.000
    H347    H    0.25460   0.40940   0.00283   1.000
    H348    H    0.15480   0.40940   0.49717   1.000
    H349    H    0.25460   0.84520   0.83050   1.000
    H350    H    0.59060   0.74540   0.16383   1.000
    H351    H    0.84520   0.59060   0.99717   1.000
    H352    H    0.74540   0.15480   0.33050   1.000
    H353    H    0.40940   0.25460   0.66383   1.000
    H354    H    0.85160   0.22910   0.69087   1.000
    H355    H    0.77090   0.62250   0.35753   1.000
    H356    H    0.62250   0.85160   0.52420   1.000
    H357    H    0.14840   0.77090   0.19087   1.000
    H358    H    0.22910   0.37750   0.85753   1.000
    H359    H    0.14840   0.37750   0.64247   1.000
    H360    H    0.22910   0.85160   0.97580   1.000
    H361    H    0.62250   0.77090   0.30913   1.000
    H362    H    0.85160   0.62250   0.14247   1.000
    H363    H    0.77090   0.14840   0.47580   1.000
    H364    H    0.37750   0.22910   0.80913   1.000
    H365    H    0.94880   0.34540   0.81567   1.000
    H366    H    0.65460   0.60340   0.48233   1.000
    H367    H    0.60340   0.94880   0.64900   1.000
    H368    H    0.05120   0.65460   0.31567   1.000
    H369    H    0.34540   0.39660   0.98233   1.000
    H370    H    0.05120   0.39660   0.51767   1.000
    H371    H    0.34540   0.94880   0.85100   1.000
    H372    H    0.60340   0.65460   0.18433   1.000
    H373    H    0.94880   0.60340   0.01767   1.000
    H374    H    0.65460   0.05120   0.35100   1.000
    H375    H    0.39660   0.34540   0.68433   1.000
    H376    H    0.05980   0.39770   0.81187   1.000
    H377    H    0.60230   0.66210   0.47853   1.000
    H378    H    0.66210   0.05980   0.64520   1.000
    H379    H    0.94020   0.60230   0.31187   1.000
    H380    H    0.39770   0.33790   0.97853   1.000
    H381    H    0.94020   0.33790   0.52147   1.000
    H382    H    0.39770   0.05980   0.85480   1.000
    H383    H    0.66210   0.60230   0.18813   1.000
    H384    H    0.05980   0.66210   0.02147   1.000
    H385    H    0.60230   0.94020   0.35480   1.000
    H386    H    0.33790   0.39770   0.68813   1.000
    H387    H    0.05000   0.26970   0.71327   1.000
    H388    H    0.73030   0.78030   0.37993   1.000
    H389    H    0.78030   0.05000   0.54660   1.000
    H390    H    0.95000   0.73030   0.21327   1.000
    H391    H    0.26970   0.21970   0.87993   1.000
    H392    H    0.95000   0.21970   0.62007   1.000
    H393    H    0.26970   0.05000   0.95340   1.000
    H394    H    0.78030   0.73030   0.28673   1.000
    H395    H    0.05000   0.78030   0.12007   1.000
    H396    H    0.73030   0.95000   0.45340   1.000
    H397    H    0.21970   0.26970   0.78673   1.000
    H398    H    0.94020   0.21690   0.71747   1.000
    H399    H    0.78310   0.72330   0.38413   1.000
    H400    H    0.72330   0.94020   0.55080   1.000
    H401    H    0.05980   0.78310   0.21747   1.000
    H402    H    0.21690   0.27670   0.88413   1.000
    H403    H    0.05980   0.27670   0.61587   1.000
    H404    H    0.21690   0.94020   0.94920   1.000
    H405    H    0.72330   0.78310   0.28253   1.000
    H406    H    0.94020   0.72330   0.11587   1.000
    H407    H    0.78310   0.05980   0.44920   1.000
    H408    H    0.27670   0.21690   0.78253   1.000
    H409    H    0.14950   0.29900   0.74997   1.000
    H410    H    0.70100   0.85050   0.41663   1.000
    H411    H    0.85050   0.14950   0.58330   1.000
    H412    H    0.85050   0.70100   0.24997   1.000
    H413    H    0.29900   0.14950   0.91663   1.000
    H414    H    0.14960   0.46560   0.75907   1.000
    H415    H    0.53440   0.68400   0.42573   1.000
    H416    H    0.68400   0.14960   0.59240   1.000
    H417    H    0.85040   0.53440   0.25907   1.000
    H418    H    0.46560   0.31600   0.92573   1.000
    H419    H    0.85040   0.31600   0.57427   1.000
    H420    H    0.46560   0.14960   0.90760   1.000
    H421    H    0.68400   0.53440   0.24093   1.000
    H422    H    0.14960   0.68400   0.07427   1.000
    H423    H    0.53440   0.85040   0.40760   1.000
    H424    H    0.31600   0.46560   0.74093   1.000
    H425    H    0.21580   0.56130   0.79627   1.000
    H426    H    0.43870   0.65450   0.46293   1.000
    H427    H    0.65450   0.21580   0.62960   1.000
    H428    H    0.78420   0.43870   0.29627   1.000
    H429    H    0.56130   0.34550   0.96293   1.000
    H430    H    0.78420   0.34550   0.53707   1.000
    H431    H    0.56130   0.21580   0.87040   1.000
    H432    H    0.65450   0.43870   0.20373   1.000
    H433    H    0.21580   0.65450   0.03707   1.000
    H434    H    0.43870   0.78420   0.37040   1.000
    H435    H    0.34550   0.56130   0.70373   1.000
    H436    H    0.27140   0.67210   0.79587   1.000
    H437    H    0.32790   0.59930   0.46253   1.000
    H438    H    0.59930   0.27140   0.62920   1.000
    H439    H    0.72860   0.32790   0.29587   1.000
    H440    H    0.67210   0.40070   0.96253   1.000
    H441    H    0.72860   0.40070   0.53747   1.000
    H442    H    0.67210   0.27140   0.87080   1.000
    H443    H    0.59930   0.32790   0.20413   1.000
    H444    H    0.27140   0.59930   0.03747   1.000
    H445    H    0.32790   0.72860   0.37080   1.000
    H446    H    0.40070   0.67210   0.70413   1.000
    H447    H    0.35390   0.76770   0.81897   1.000
    H448    H    0.23230   0.58620   0.48563   1.000
    H449    H    0.58620   0.35390   0.65230   1.000
    H450    H    0.64610   0.23230   0.31897   1.000
    H451    H    0.76770   0.41380   0.98563   1.000
    H452    H    0.64610   0.41380   0.51437   1.000
    H453    H    0.76770   0.35390   0.84770   1.000
    H454    H    0.58620   0.23230   0.18103   1.000
    H455    H    0.35390   0.58620   0.01437   1.000
    H456    H    0.23230   0.64610   0.34770   1.000
    H457    H    0.41380   0.76770   0.68103   1.000
    H458    H    0.41060   0.87860   0.82097   1.000
    H459    H    0.12140   0.53200   0.48763   1.000
    H460    H    0.53200   0.41060   0.65430   1.000
    H461    H    0.58940   0.12140   0.32097   1.000
    H462    H    0.87860   0.46800   0.98763   1.000
    H463    H    0.58940   0.46800   0.51237   1.000
    H464    H    0.87860   0.41060   0.84570   1.000
    H465    H    0.53200   0.12140   0.17903   1.000
    H466    H    0.41060   0.53200   0.01237   1.000
    H467    H    0.12140   0.58940   0.34570   1.000
    H468    H    0.46800   0.87860   0.67903   1.000
    H469    H    0.60150   0.02430   0.53937   1.000
    H470    H    0.97570   0.57720   0.20603   1.000
    H471    H    0.57720   0.60150   0.37270   1.000
    H472    H    0.39850   0.97570   0.03937   1.000
    H473    H    0.02430   0.42280   0.70603   1.000
    H474    H    0.39850   0.42280   0.79397   1.000
    H475    H    0.02430   0.60150   0.12730   1.000
    H476    H    0.57720   0.97570   0.46063   1.000
    H477    H    0.60150   0.57720   0.29397   1.000
    H478    H    0.97570   0.39850   0.62730   1.000
    H479    H    0.42280   0.02430   0.96063   1.000
    O480    O    0.51184   0.43904   0.95077   1.000
    O481    O    0.49334   0.36941   0.04965   1.000
    O482    O    0.62481   0.49346   0.03653   1.000
    O483    O    0.48471   0.49520   0.04318   1.000
    O484    O    0.57690   0.54038   0.94039   1.000
    O485    O    0.56096   0.07280   0.61744   1.000
    O486    O    0.92720   0.48816   0.28410   1.000
    O487    O    0.48816   0.56096   0.45077   1.000
    O488    O    0.43904   0.92720   0.11744   1.000
    O489    O    0.07280   0.51184   0.78410   1.000
    O490    O    0.43904   0.51184   0.71590   1.000
    O491    O    0.07280   0.56096   0.04923   1.000
    O492    O    0.48816   0.92720   0.38256   1.000
    O493    O    0.56096   0.48816   0.21590   1.000
    O494    O    0.92720   0.43904   0.54923   1.000
    O495    O    0.51184   0.07280   0.88256   1.000
    O496    O    0.63059   0.12393   0.71632   1.000
    O497    O    0.87607   0.50666   0.38298   1.000
    O498    O    0.50666   0.63059   0.54965   1.000
    O499    O    0.36941   0.87607   0.21632   1.000
    O500    O    0.12393   0.49334   0.88298   1.000
    O501    O    0.36941   0.49334   0.61702   1.000
    O502    O    0.12393   0.63059   0.95035   1.000
    O503    O    0.50666   0.87607   0.28368   1.000
    O504    O    0.63059   0.50666   0.11702   1.000
    O505    O    0.87607   0.36941   0.45035   1.000
    O506    O    0.49334   0.12393   0.78368   1.000
    O507    O    0.50654   0.13135   0.70320   1.000
    O508    O    0.86865   0.37519   0.36986   1.000
    O509    O    0.37519   0.50654   0.53653   1.000
    O510    O    0.49346   0.86865   0.20320   1.000
    O511    O    0.13135   0.62481   0.86986   1.000
    O512    O    0.49346   0.62481   0.63014   1.000
    O513    O    0.13135   0.50654   0.96347   1.000
    O514    O    0.37519   0.86865   0.29680   1.000
    O515    O    0.50654   0.37519   0.13014   1.000
    O516    O    0.86865   0.49346   0.46347   1.000
    O517    O    0.62481   0.13135   0.79680   1.000
    O518    O    0.50480   0.98951   0.70985   1.000
    O519    O    0.01049   0.51529   0.37651   1.000
    O520    O    0.51529   0.50480   0.54318   1.000
    O521    O    0.49520   0.01049   0.20985   1.000
    O522    O    0.98951   0.48471   0.87651   1.000
    O523    O    0.49520   0.48471   0.62349   1.000
    O524    O    0.98951   0.50480   0.95682   1.000
    O525    O    0.51529   0.01049   0.29015   1.000
    O526    O    0.50480   0.51529   0.12349   1.000
    O527    O    0.01049   0.49520   0.45682   1.000
    O528    O    0.48471   0.98951   0.79015   1.000
    O529    O    0.45962   0.03652   0.60706   1.000
    O530    O    0.96348   0.42310   0.27372   1.000
    O531    O    0.42310   0.45962   0.44039   1.000
    O532    O    0.54038   0.96348   0.10706   1.000
    O533    O    0.03652   0.57690   0.77372   1.000
    O534    O    0.54038   0.57690   0.72628   1.000
    O535    O    0.03652   0.45962   0.05961   1.000
    O536    O    0.42310   0.96348   0.39294   1.000
    O537    O    0.45962   0.42310   0.22628   1.000
    O538    O    0.96348   0.54038   0.55961   1.000
    O539    O    0.57690   0.03652   0.89294   1.000
    S540    S    0.54390   0.54390   0.83333   1.000
    S541    S    0.45610   0.00000   0.49997   1.000
    S542    S    0.00000   0.45610   0.16667   1.000
    S543    S    0.45610   0.45610   0.33333   1.000
    S544    S    0.54390   0.00000   0.99997   1.000
    S545    S    0.00000   0.54390   0.66667   1.000
    Zn546   Zn   0.53463   0.45653   0.02073   1.000
    Zn547   Zn   0.54347   0.07810   0.68739   1.000
    Zn548   Zn   0.92190   0.46537   0.35406   1.000
    Zn549   Zn   0.46537   0.54347   0.52073   1.000
    Zn550   Zn   0.45653   0.92190   0.18739   1.000
    Zn551   Zn   0.07810   0.53463   0.85406   1.000
    Zn552   Zn   0.45653   0.53463   0.64594   1.000
    Zn553   Zn   0.07810   0.54347   0.97927   1.000
    Zn554   Zn   0.46537   0.92190   0.31261   1.000
    Zn555   Zn   0.54347   0.46537   0.14594   1.000
    Zn556   Zn   0.92190   0.45653   0.47927   1.000
    Zn557   Zn   0.53463   0.07810   0.81261   1.000
loop_
    _geom_bond_atom_site_label_1
    _geom_bond_atom_site_label_2
    _geom_bond_distance
    _geom_bond_site_symmetry_2
    _ccdc_geom_bond_type
    H336   C66       0.93088  1_554   S
    H347   C77       0.92939  1_554   S
    H466   C270      0.93067      .   S
    H455   C249      0.93061      .   S
    H373   C125      0.92904      .   S
    Zn546  O482      1.93659      .   S
    Zn546  O483      1.94735      .   S
    Zn546  O481      1.97660      .   S
    Zn546  O480      1.95292  1_554   S
    H306   C2        0.92861      .   S
    H384   C136      0.93102      .   S
    C287   H472      0.92996      .   S
    C287   C276      1.34562      .   S
    C287   C294      1.34203  1_564   S
    H309   C6        0.93075      .   S
    C81    C70       1.38775      .   S
    C81    C92       1.38355      .   S
    C81    H351      0.92939  1_554   S
    C70    C48       1.36612      .   S
    C70    H340      0.93088  1_554   S
    O482   C37       1.22351      .   S
    H433   C217      0.92985      .   S
    H444   C228      0.92920      .   S
    C125   C136      1.39919  1_655   S
    C125   C114      1.38380      .   S
    C270   C249      1.39195      .   S
    C270   C24       1.41903      .   S
    C136   C147      1.38190      .   S
    C276   C298      1.50512      .   S
    C276   S544      1.71062  1_564   S
    C249   C21       1.39247      .   S
    O483   C23       1.23789      .   S
    H312   C11       0.92975      .   S
    O491   C301      1.24673      .   S
    O491   Zn553     1.95292  1_554   S
    O481   C0        1.22992      .   S
    H313   C12       0.93101      .   S
    C2     C6        1.35792      .   S
    C2     C1        1.40903      .   S
    C6     C5        1.38605      .   S
    C217   C228      1.39465      .   S
    C217   C17       1.38375      .   S
    C228   C20       1.37742      .   S
    O535   C301      1.20984      .   S
    C11    C12       1.37854  1_565   S
    C11    C10       1.38866      .   S
    C114   C92       1.49494      .   S
    C114   C169      1.38913      .   S
    C92    C103      1.38605      .   S
    C12    C7        1.38913      .   S
    C48    C37       1.51376      .   S
    C48    C59       1.40903      .   S
    C147   C180      1.47661      .   S
    C147   C158      1.38866      .   S
    C301   C279      1.50512      .   S
    H422   C196      0.92949      .   S
    C37    O504      1.22992      .   S
    C180   C196      1.39445      .   S
    C180   C14       1.39741      .   S
    C196   C16       1.40132      .   S
    C23    C24       1.49296      .   S
    C23    O526      1.23954      .   S
    C17    C16       1.49796      .   S
    C17    C18       1.38476      .   S
    C16    C15       1.40152      .   S
    C20    C21       1.48338      .   S
    C20    C19       1.37843      .   S
    C21    C22       1.39398      .   S
    C14    H314      0.92836      .   S
    C14    C13       1.39762      .   S
    C24    C25       1.42056      .   S
    C15    C13       1.39445      .   S
    C15    H315      0.92949      .   S
    C13    C10       1.47661      .   S
    C0     C1        1.51376      .   S
    C0     O515      1.22351      .   S
    C298   O532      1.20984      .   S
    C298   O488      1.24673      .   S
    C10    C9        1.38190      .   S
    C1     C3        1.36612      .   S
    C169   C158      1.37854  1_655   S
    C169   H406      0.93101      .   S
    C5     C7        1.49494      .   S
    C5     C4        1.38355      .   S
    C7     C8        1.38380      .   S
    C158   H395      0.92975      .   S
    C19    C18       1.39465      .   S
    C19    H317      0.92920      .   S
    C18    H316      0.92985      .   S
    C103   C59       1.35792      .   S
    C103   H362      0.93075      .   S
    C59    H329      0.92861      .   S
    O504   Zn555     1.97660      .   S
    O488   Zn550     1.95266      .   S
    O526   Zn555     1.94735      .   S
    C22    C25       1.39195      .   S
    C22    H318      0.93061      .   S
    C279   C290      1.34562      .   S
    C279   S542      1.71002      .   S
    C9     C8        1.39919  1_565   S
    C9     H311      0.93102      .   S
    C25    H319      0.93067      .   S
    H475   C290      0.92996      .   S
    C8     H310      0.92904      .   S
    O515   Zn555     1.93659      .   S
    C3     C4        1.38775      .   S
    C3     H307      0.93088      .   S
    C4     H308      0.92939      .   S
    C290   C285      1.34179  1_455   S
    Zn555  O493      1.95292      .   S
    H350   C80       0.92939      .   S
    H339   C69       0.93088      .   S
    S542   C274      1.70996  1_455   S
    H465   C269      0.93067      .   S
    H454   C248      0.93061      .   S
    H372   C124      0.92904      .   S
    Zn550  O510      1.93665      .   S
    Zn550  O521      1.94743  1_565   S
    Zn550  O499      1.97670      .   S
    H324   C54       0.92861      .   S
    H383   C135      0.93102      .   S
    C285   H470      0.92996      .   S
    C285   C274      1.34562      .   S
    H357   C98       0.93075      .   S
    C80    C69       1.38775      .   S
    C80    C91       1.38355      .   S
    C69    C47       1.36612      .   S
    O510   C36       1.22328      .   S
    H432   C216      0.92985      .   S
    H443   C227      0.92920      .   S
    C124   C135      1.39919      .   S
    C124   C113      1.38380      .   S
    C269   C248      1.39195      .   S
    C269   C260      1.41925      .   S
    C135   C146      1.38190      .   S
    C274   C296      1.50512      .   S
    C248   C239      1.39269      .   S
    O521   C255      1.23789      .   S
    H390   C153      0.92975      .   S
    O493   C303      1.24673      .   S
    O499   C32       1.22992      .   S
    H401   C164      0.93101      .   S
    C54    C98       1.35792      .   S
    C54    C43       1.40903      .   S
    C98    C87       1.38605      .   S
    C216   C227      1.39465      .   S
    C216   C207      1.38389      .   S
    C227   C234      1.37757      .   S
    O537   C303      1.20984      .   S
    C153   C164      1.37854  1_655   S
    C153   C142      1.38866      .   S
    C113   C91       1.49494      .   S
    C113   C168      1.38913      .   S
    C91    C102      1.38605      .   S
    C164   C109      1.38913      .   S
    C47    C36       1.51376      .   S
    C47    C58       1.40903      .   S
    C146   C179      1.47661      .   S
    C146   C157      1.38866      .   S
    C303   C281      1.50512      .   S
    H421   C195      0.92949      .   S
    C36    O503      1.22992      .   S
    C179   C195      1.39445      .   S
    C179   C186      1.39744      .   S
    C195   C202      1.40135      .   S
    C260   C255      1.49296      .   S
    C260   C265      1.42056      .   S
    C202   C207      1.49796      .   S
    C202   C191      1.40152      .   S
    C186   H412      0.92836      .   S
    C186   C175      1.39762      .   S
    C239   C234      1.48338      .   S
    C239   C244      1.39398      .   S
    C234   C223      1.37843      .   S
    C255   O525      1.23931      .   S
    C207   C212      1.38476      .   S
    C191   C175      1.39445      .   S
    C191   H417      0.92949      .   S
    C175   C142      1.47661      .   S
    C32    C43       1.51376      .   S
    C32    O514      1.22328      .   S
    C296   O530      1.20984      .   S
    C296   O486      1.24673      .   S
    C142   C131      1.38190      .   S
    C43    C65       1.36612      .   S
    C168   C157      1.37854      .   S
    C168   H405      0.93101      .   S
    C87    C109      1.49494      .   S
    C87    C76       1.38355      .   S
    C109   C120      1.38380      .   S
    C157   H394      0.92975      .   S
    C223   C212      1.39465      .   S
    C223   H439      0.92920      .   S
    C212   H428      0.92985      .   S
    C102   C58       1.35792      .   S
    C102   H361      0.93075      .   S
    C58    H328      0.92861      .   S
    O503   Zn554     1.97670      .   S
    O486   Zn548     1.95292      .   S
    O525   Zn554     1.94743  1_545   S
    C244   C265      1.39195      .   S
    C244   H450      0.93061      .   S
    C281   C292      1.34562      .   S
    C281   S543      1.70996      .   S
    C131   C120      1.39919  1_655   S
    C131   H379      0.93102      .   S
    C265   H461      0.93067      .   S
    H477   C292      0.92996      .   S
    C120   H368      0.92904      .   S
    O514   Zn554     1.93665      .   S
    C65    C76       1.38775      .   S
    C65    H335      0.93088      .   S
    C76    H346      0.92939      .   S
    C292   C286      1.34179      .   S
    Zn554  O492      1.95266      .   S
    H352   C82       0.92939      .   S
    H341   C71       0.93088      .   S
    S543   C275      1.71002      .   S
    H467   C271      0.93067      .   S
    H456   C250      0.93061      .   S
    H374   C126      0.92904      .   S
    Zn548  O508      1.93659      .   S
    Zn548  O519      1.94735  1_655   S
    Zn548  O497      1.97660      .   S
    H322   C52       0.92861      .   S
    H385   C137      0.93102      .   S
    C286   H471      0.92996      .   S
    C286   C275      1.34562      .   S
    H355   C96       0.93075      .   S
    C82    C71       1.38775      .   S
    C82    C93       1.38355      .   S
    C71    C49       1.36612      .   S
    O508   C38       1.22351      .   S
    H434   C218      0.92985      .   S
    H445   C229      0.92920      .   S
    C126   C137      1.39919  1_545   S
    C126   C115      1.38380      .   S
    C271   C250      1.39195      .   S
    C271   C258      1.41903      .   S
    C137   C148      1.38190      .   S
    C275   C297      1.50512      .   S
    C250   C237      1.39247      .   S
    O519   C253      1.23789      .   S
    H388   C151      0.92975      .   S
    O492   C302      1.24673      .   S
    O497   C30       1.22992      .   S
    H399   C162      0.93101      .   S
    C52    C96       1.35792      .   S
    C52    C41       1.40903      .   S
    C96    C85       1.38605      .   S
    C218   C229      1.39465      .   S
    C218   C205      1.38375      .   S
    C229   C232      1.37742      .   S
    O536   C302      1.20984      .   S
    C151   C162      1.37854      .   S
    C151   C140      1.38866      .   S
    C115   C93       1.49494      .   S
    C115   C170      1.38913      .   S
    C93    C104      1.38605      .   S
    C162   C107      1.38913      .   S
    C49    C38       1.51376      .   S
    C49    C60       1.40903      .   S
    C148   C181      1.47661      .   S
    C148   C159      1.38866      .   S
    C302   C280      1.50512      .   S
    H423   C197      0.92949      .   S
    C38    O505      1.22992      .   S
    C181   C197      1.39445      .   S
    C181   C184      1.39741      .   S
    C197   C200      1.40132      .   S
    C184   H410      0.92836      .   S
    C184   C173      1.39762      .   S
    C253   C258      1.49296      .   S
    C253   O527      1.23954      .   S
    C237   C232      1.48338      .   S
    C237   C242      1.39398      .   S
    C258   C263      1.42056      .   S
    C232   C221      1.37843      .   S
    C200   C205      1.49796      .   S
    C200   C189      1.40152      .   S
    C205   C210      1.38476      .   S
    C189   C173      1.39445      .   S
    C189   H415      0.92949      .   S
    C173   C140      1.47661      .   S
    C30    C41       1.51376      .   S
    C30    O516      1.22351      .   S
    C297   O531      1.20984      .   S
    C297   O487      1.24673      .   S
    C140   C129      1.38190      .   S
    C41    C63       1.36612      .   S
    C170   C159      1.37854  1_545   S
    C170   H407      0.93101      .   S
    C85    C107      1.49494      .   S
    C85    C74       1.38355      .   S
    C107   C118      1.38380      .   S
    C159   H396      0.92975      .   S
    C221   C210      1.39465      .   S
    C221   H437      0.92920      .   S
    C210   H426      0.92985      .   S
    C104   C60       1.35792      .   S
    C104   H363      0.93075      .   S
    C60    H330      0.92861      .   S
    O505   Zn556     1.97660      .   S
    O487   Zn549     1.95292      .   S
    O527   Zn556     1.94735  1_455   S
    C242   C263      1.39195      .   S
    C242   H448      0.93061      .   S
    C280   C291      1.34562      .   S
    C280   S541      1.70954  1_565   S
    C129   C118      1.39919      .   S
    C129   H377      0.93102      .   S
    C263   H459      0.93067      .   S
    H476   C291      0.92996      .   S
    C118   H366      0.92904      .   S
    O516   Zn556     1.93659      .   S
    C63    C74       1.38775      .   S
    C63    H333      0.93088      .   S
    C74    H344      0.92939      .   S
    C291   C284      1.34203  1_565   S
    Zn556  O494      1.95292      .   S
    H348   C78       0.92939      .   S
    H337   C67       0.93088      .   S
    S541   C273      1.71062      .   S
    H463   C267      0.93067      .   S
    H452   C246      0.93061      .   S
    H370   C122      0.92904      .   S
    Zn549  O509      1.93659      .   S
    Zn549  O520      1.94735      .   S
    Zn549  O498      1.97660      .   S
    H323   C53       0.92861      .   S
    H381   C133      0.93102      .   S
    C284   H469      0.92996      .   S
    C284   C273      1.34562      .   S
    H356   C97       0.93075      .   S
    C78    C67       1.38775      .   S
    C78    C89       1.38355      .   S
    C67    C45       1.36612      .   S
    O509   C34       1.22351      .   S
    H430   C214      0.92985      .   S
    H441   C225      0.92920      .   S
    C122   C133      1.39919  1_455   S
    C122   C111      1.38380      .   S
    C267   C246      1.39195      .   S
    C267   C259      1.41903      .   S
    C133   C144      1.38190      .   S
    C273   C295      1.50512      .   S
    C246   C238      1.39247      .   S
    O520   C254      1.23789      .   S
    H389   C152      0.92975      .   S
    O494   C304      1.24673      .   S
    O498   C31       1.22992      .   S
    H400   C163      0.93101      .   S
    C53    C97       1.35792      .   S
    C53    C42       1.40903      .   S
    C97    C86       1.38605      .   S
    C214   C225      1.39465      .   S
    C214   C206      1.38375      .   S
    C225   C233      1.37742      .   S
    O538   C304      1.20984      .   S
    C152   C163      1.37854  1_545   S
    C152   C141      1.38866      .   S
    C111   C89       1.49494      .   S
    C111   C166      1.38913      .   S
    C89    C100      1.38605      .   S
    C163   C108      1.38913      .   S
    C45    C34       1.51376      .   S
    C45    C56       1.40903      .   S
    C144   C177      1.47661      .   S
    C144   C155      1.38866      .   S
    C304   C282      1.50512      .   S
    H419   C193      0.92949      .   S
    C34    O501      1.22992      .   S
    C177   C193      1.39445      .   S
    C177   C185      1.39741      .   S
    C193   C201      1.40132      .   S
    C185   H411      0.92836      .   S
    C185   C174      1.39762      .   S
    C259   C254      1.49296      .   S
    C259   C264      1.42056      .   S
    C201   C206      1.49796      .   S
    C201   C190      1.40152      .   S
    C238   C233      1.48338      .   S
    C238   C243      1.39398      .   S
    C233   C222      1.37843      .   S
    C206   C211      1.38476      .   S
    C254   O523      1.23954      .   S
    C190   C174      1.39445      .   S
    C190   H416      0.92949      .   S
    C174   C141      1.47661      .   S
    C31    C42       1.51376      .   S
    C31    O512      1.22351      .   S
    C295   O529      1.20984      .   S
    C295   O485      1.24673      .   S
    C141   C130      1.38190      .   S
    C42    C64       1.36612      .   S
    C166   C155      1.37854  1_455   S
    C166   H403      0.93101      .   S
    C86    C108      1.49494      .   S
    C86    C75       1.38355      .   S
    C108   C119      1.38380      .   S
    C155   H392      0.92975      .   S
    C222   C211      1.39465      .   S
    C222   H438      0.92920      .   S
    C211   H427      0.92985      .   S
    C100   C56       1.35792      .   S
    C100   H359      0.93075      .   S
    C56    H326      0.92861      .   S
    O501   Zn552     1.97660      .   S
    O485   Zn547     1.95266      .   S
    O523   Zn552     1.94735      .   S
    C243   C264      1.39195      .   S
    C243   H449      0.93061      .   S
    C282   C293      1.34562      .   S
    C282   S545      1.71002  1_655   S
    C130   C119      1.39919  1_545   S
    C130   H378      0.93102      .   S
    C264   H460      0.93067      .   S
    H478   C293      0.92996      .   S
    C119   H367      0.92904      .   S
    O512   Zn552     1.93659      .   S
    C64    C75       1.38775      .   S
    C64    H334      0.93088      .   S
    C75    H345      0.92939      .   S
    C293   C288      1.34179  1_655   S
    Zn552  O490      1.95292      .   S
    H353   C83       0.92939      .   S
    H342   C72       0.93088      .   S
    S545   C277      1.70996      .   S
    H468   C272      0.93067      .   S
    H457   C251      0.93061      .   S
    H375   C127      0.92904      .   S
    Zn547  O507      1.93665      .   S
    Zn547  O518      1.94743  1_545   S
    Zn547  O496      1.97670      .   S
    H321   C51       0.92861      .   S
    H386   C138      0.93102      .   S
    C288   H473      0.92996      .   S
    C288   C277      1.34562      .   S
    H354   C95       0.93075      .   S
    C83    C72       1.38775      .   S
    C83    C94       1.38355      .   S
    C72    C50       1.36612      .   S
    O507   C39       1.22328      .   S
    H435   C219      0.92985      .   S
    H446   C230      0.92920      .   S
    C127   C138      1.39919      .   S
    C127   C116      1.38380      .   S
    C272   C251      1.39195      .   S
    C272   C257      1.41925      .   S
    C138   C149      1.38190      .   S
    C277   C299      1.50512      .   S
    C251   C236      1.39269      .   S
    O518   C252      1.23789      .   S
    H387   C150      0.92975      .   S
    O490   C300      1.24673      .   S
    O496   C29       1.22992      .   S
    H398   C161      0.93101      .   S
    C51    C95       1.35792      .   S
    C51    C40       1.40903      .   S
    C95    C84       1.38605      .   S
    C219   C230      1.39465      .   S
    C219   C204      1.38389      .   S
    C230   C231      1.37757      .   S
    O534   C300      1.20984      .   S
    C150   C161      1.37854  1_455   S
    C150   C139      1.38866      .   S
    C116   C94       1.49494      .   S
    C116   C171      1.38913      .   S
    C94    C105      1.38605      .   S
    C161   C106      1.38913      .   S
    C50    C39       1.51376      .   S
    C50    C61       1.40903      .   S
    C149   C182      1.47661      .   S
    C149   C160      1.38866      .   S
    C300   C278      1.50512      .   S
    H424   C198      0.92949      .   S
    C39    O506      1.22992      .   S
    C182   C198      1.39445      .   S
    C182   C183      1.39744      .   S
    C198   C199      1.40135      .   S
    C231   C236      1.48338      .   S
    C231   C220      1.37843      .   S
    C252   C257      1.49296      .   S
    C252   O528      1.23931      .   S
    C236   C241      1.39398      .   S
    C257   C262      1.42056      .   S
    C183   H409      0.92836      .   S
    C183   C172      1.39762      .   S
    C204   C199      1.49796      .   S
    C204   C209      1.38476      .   S
    C199   C188      1.40152      .   S
    C188   C172      1.39445      .   S
    C188   H414      0.92949      .   S
    C172   C139      1.47661      .   S
    C29    C40       1.51376      .   S
    C29    O517      1.22328      .   S
    C299   O533      1.20984      .   S
    C299   O489      1.24673      .   S
    C139   C128      1.38190      .   S
    C40    C62       1.36612      .   S
    C171   C160      1.37854      .   S
    C171   H408      0.93101      .   S
    C84    C106      1.49494      .   S
    C84    C73       1.38355      .   S
    C106   C117      1.38380      .   S
    C160   H397      0.92975      .   S
    C220   C209      1.39465      .   S
    C220   H436      0.92920      .   S
    C209   H425      0.92985      .   S
    C105   C61       1.35792      .   S
    C105   H364      0.93075      .   S
    C61    H331      0.92861      .   S
    O506   Zn557     1.97670      .   S
    O489   Zn551     1.95292      .   S
    O528   Zn557     1.94743  1_565   S
    C241   C262      1.39195      .   S
    C241   H447      0.93061      .   S
    C278   C289      1.34562      .   S
    C278   S540      1.70996      .   S
    C128   C117      1.39919  1_455   S
    C128   H376      0.93102      .   S
    C262   H458      0.93067      .   S
    H474   C289      0.92996      .   S
    C117   H365      0.92904      .   S
    O517   Zn557     1.93665      .   S
    C62    C73       1.38775      .   S
    C62    H332      0.93088      .   S
    C73    H343      0.92939      .   S
    C289   C27       1.34179      .   S
    Zn557  O495      1.95266      .   S
    H349   C79       0.92939      .   S
    H338   C68       0.93088      .   S
    S540   C26       1.71002      .   S
    H464   C268      0.93067      .   S
    H453   C247      0.93061      .   S
    H371   C123      0.92904      .   S
    Zn551  O511      1.93659      .   S
    Zn551  O522      1.94735  1_455   S
    Zn551  O500      1.97660      .   S
    H325   C55       0.92861      .   S
    H382   C134      0.93102      .   S
    C27    H320      0.92996      .   S
    C27    C26       1.34562      .   S
    H358   C99       0.93075      .   S
    C79    C68       1.38775      .   S
    C79    C90       1.38355      .   S
    C68    C46       1.36612      .   S
    O511   C35       1.22351      .   S
    H431   C215      0.92985      .   S
    H442   C226      0.92920      .   S
    C123   C134      1.39919  1_565   S
    C123   C112      1.38380      .   S
    C268   C247      1.39195      .   S
    C268   C261      1.41903      .   S
    C134   C145      1.38190      .   S
    C26    C28       1.50512      .   S
    C247   C240      1.39247      .   S
    O522   C256      1.23789      .   S
    H391   C154      0.92975      .   S
    O495   C305      1.24673      .   S
    O500   C33       1.22992      .   S
    H402   C165      0.93101      .   S
    C55    C99       1.35792      .   S
    C55    C44       1.40903      .   S
    C99    C88       1.38605      .   S
    C215   C226      1.39465      .   S
    C215   C208      1.38375      .   S
    C226   C235      1.37742      .   S
    O539   C305      1.20984      .   S
    C154   C165      1.37854      .   S
    C154   C143      1.38866      .   S
    C112   C90       1.49494      .   S
    C112   C167      1.38913      .   S
    C90    C101      1.38605      .   S
    C165   C110      1.38913      .   S
    C46    C35       1.51376      .   S
    C46    C57       1.40903      .   S
    C145   C178      1.47661      .   S
    C145   C156      1.38866      .   S
    C305   C283      1.50512      .   S
    H420   C194      0.92949      .   S
    C35    O502      1.22992      .   S
    C178   C194      1.39445      .   S
    C178   C187      1.39741      .   S
    C194   C203      1.40132      .   S
    C203   C208      1.49796      .   S
    C203   C192      1.40152      .   S
    C208   C213      1.38476      .   S
    C187   H413      0.92836      .   S
    C187   C176      1.39762      .   S
    C261   C256      1.49296      .   S
    C261   C266      1.42056      .   S
    C256   O524      1.23954      .   S
    C235   C240      1.48338      .   S
    C235   C224      1.37843      .   S
    C240   C245      1.39398      .   S
    C192   C176      1.39445      .   S
    C192   H418      0.92949      .   S
    C176   C143      1.47661      .   S
    C33    C44       1.51376      .   S
    C33    O513      1.22351      .   S
    C28    O484      1.20984      .   S
    C28    O480      1.24673      .   S
    C143   C132      1.38190      .   S
    C44    C66       1.36612      .   S
    C167   C156      1.37854  1_565   S
    C167   H404      0.93101      .   S
    C88    C110      1.49494      .   S
    C88    C77       1.38355      .   S
    C110   C121      1.38380      .   S
    C156   H393      0.92975      .   S
    C224   C213      1.39465      .   S
    C224   H440      0.92920      .   S
    C213   H429      0.92985      .   S
    C101   C57       1.35792      .   S
    C101   H360      0.93075      .   S
    C57    H327      0.92861      .   S
    O502   Zn553     1.97660      .   S
    O524   Zn553     1.94735  1_655   S
    C245   C266      1.39195      .   S
    C245   H451      0.93061      .   S
    C283   C294      1.34562      .   S
    C283   S544      1.70954      .   S
    C132   C121      1.39919      .   S
    C132   H380      0.93102      .   S
    C266   H462      0.93067      .   S
    H479   C294      0.92996      .   S
    C121   H369      0.92904      .   S
    O513   Zn553     1.93659      .   S
    C66    C77       1.38775      .   S
