# CIF file generated by openbabel 3.1.0, see https://openbabel.org
data_I
_chemical_name_common ''
_cell_length_a 19.2889
_cell_length_b 10.6546
_cell_length_c 18.3662
_cell_angle_alpha 89.995
_cell_angle_beta 89.9771
_cell_angle_gamma 83.8106
_space_group_name_H-M_alt 'P 1'
_space_group_name_Hall 'P 1'
loop_
    _symmetry_equiv_pos_as_xyz
    x,y,z
loop_
    _atom_site_label
    _atom_site_type_symbol
    _atom_site_fract_x
    _atom_site_fract_y
    _atom_site_fract_z
    _atom_site_occupancy
    C0       C        0.92238    0.15666    0.93922    1.000
    C1       C        0.72026    0.17779    0.93927    1.000
    C2       C        0.82596    0.98438    0.93924    1.000
    C3       C        0.81667    0.35006    0.93924    1.000
    C4       C        0.82595    0.98438    0.06034    1.000
    C5       C        0.72024    0.17778    0.06037    1.000
    C6       C        0.92236    0.15665    0.06032    1.000
    C7       C        0.82130    0.16721    0.07957    1.000
    C8       C        0.82132    0.16722    0.92002    1.000
    C9       C        0.81665    0.35005    0.06034    1.000
    C10      C        0.69437    0.17711    0.99982    1.000
    C11      C        0.61725    0.17506    0.99984    1.000
    C12      C        0.57330    0.28854    0.99983    1.000
    C13      C        0.50084    0.28663    0.99982    1.000
    C14      C        0.47233    0.17122    0.99981    1.000
    C15      C        0.51630    0.05772    0.99983    1.000
    C16      C        0.58875    0.05965    0.99984    1.000
    C17      C        0.36348    0.08050    0.95736    1.000
    C18      C        0.29103    0.07859    0.95734    1.000
    C19      C        0.24885    0.16529    0.99977    1.000
    C20      C        0.27914    0.25394    0.04220    1.000
    C21      C        0.35159    0.25585    0.04222    1.000
    C22      C        0.39377    0.16913    0.99980    1.000
    C23      C        0.12633    0.27670    0.99975    1.000
    C24      C        0.05387    0.27478    0.99974    1.000
    C25      C        0.06933    0.04587    0.99974    1.000
    C26      C        0.14179    0.04780    0.99975    1.000
    C27      C        0.17028    0.16322    0.99975    1.000
    C28      C        0.82527    0.93760    0.99979    1.000
    C29      C        0.82323    0.79820    0.99979    1.000
    C30      C        0.88547    0.71738    0.99978    1.000
    C31      C        0.88355    0.58640    0.99977    1.000
    C32      C        0.75714    0.61707    0.99980    1.000
    C33      C        0.75906    0.74805    0.99980    1.000
    C34      C        0.95845    0.69967    0.99977    1.000
    C35      C        0.95653    0.56869    0.99976    1.000
    C36      C        0.94825    0.15733    0.99976    1.000
    C37      C        0.02537    0.15937    0.99974    1.000
    C38      C        0.81734    0.39684    0.99979    1.000
    C39      C        0.81939    0.53624    0.99979    1.000
    C40      C        0.82129    0.16720    0.18846    1.000
    C41      C        0.82134    0.16722    0.81113    1.000
    C42      C        0.86811    0.08160    0.22655    1.000
    C43      C        0.86811    0.08160    0.30278    1.000
    C44      C        0.82130    0.16721    0.34091    1.000
    C45      C        0.77447    0.25282    0.30281    1.000
    C46      C        0.77446    0.25281    0.22659    1.000
    C47      C        0.81275    0.28163    0.46168    1.000
    C48      C        0.81276    0.28164    0.53790    1.000
    C49      C        0.82132    0.16723    0.57602    1.000
    C50      C        0.82988    0.05280    0.53791    1.000
    C51      C        0.82987    0.05280    0.46168    1.000
    C52      C        0.82130    0.16723    0.42357    1.000
    C53      C        0.86815    0.08162    0.69677    1.000
    C54      C        0.86815    0.08161    0.77299    1.000
    C55      C        0.77451    0.25284    0.77303    1.000
    C56      C        0.77451    0.25284    0.69680    1.000
    C57      C        0.82133    0.16723    0.65868    1.000
    C58      C        0.26637    0.00641    0.92279    1.000
    C59      C        0.68793    0.56298    0.99981    1.000
    C60      C        0.65799    0.59547    0.04917    1.000
    C61      C        0.98168    0.73480    0.05205    1.000
    C62      C        0.70838    0.81384    0.99980    1.000
    C63      C        0.98700    0.72842    0.94908    1.000
    C64      C        0.17757    0.95539    0.99976    1.000
    C65      C        0.00646    0.39719    0.99974    1.000
    C66      C        0.95129    0.37647    0.99974    1.000
    C67      C        0.72401    0.34517    0.65572    1.000
    C68      C        0.68999    0.29246    0.62102    1.000
    C69      C        0.80580    0.37481    0.56893    1.000
    C70      C        0.83912    0.92938    0.57901    1.000
    C71      C        0.79640    0.87213    0.56440    1.000
    C72      C        0.04612    0.95191    0.99969    1.000
    C73      C        0.40897    0.98699    0.91160    1.000
    C74      C        0.37574    0.92504    0.88208    1.000
    C75      C        0.73639    0.32254    0.80408    1.000
    C76      C        0.97859    0.52258    0.94747    1.000
    C77      C        0.91864    0.98927    0.65563    1.000
    C78      C        0.95120    0.92973    0.69493    1.000
    C79      C        0.48556    0.93325    0.99982    1.000
    C80      C        0.42779    0.95098    0.99980    1.000
    C81      C        0.91861    0.98927    0.18543    1.000
    C82      C        0.88907    0.92837    0.15072    1.000
    C83      C        0.90628    0.01190    0.80401    1.000
    C84      C        0.98402    0.52634    0.05044    1.000
    C85      C        0.80353    0.40504    0.42056    1.000
    C86      C        0.79759    0.48461    0.45986    1.000
    C87      C        0.83684    0.95963    0.43065    1.000
    C88      C        0.72398    0.34517    0.34394    1.000
    C89      C        0.73186    0.33080    0.40334    1.000
    C90      C        0.91862    0.98929    0.34388    1.000
    C91      C        0.95119    0.92976    0.30456    1.000
    C92      C        0.62454    0.96723    0.99985    1.000
    C93      C        0.59649    0.38253    0.99983    1.000
    C94      C        0.23365    0.34745    0.08797    1.000
    C95      C        0.24101    0.44487    0.07051    1.000
    C96      C        0.45342    0.40903    0.99980    1.000
    C97      C        0.48540    0.48960    0.99980    1.000
    C98      C        0.38427    0.35141    0.08802    1.000
    C99      C        0.34277    0.41136    0.11753    1.000
    C100     C        0.73633    0.32252    0.19557    1.000
    C101     C        0.14953    0.37068    0.99976    1.000
    O102     O        0.82133    0.16722    0.86557    1.000
    O103     O        0.84474    0.12442    0.79206    1.000
    O104     O        0.79792    0.21003    0.79208    1.000
    O105     O        0.39236    0.95602    0.89684    1.000
    O106     O        0.38623    0.03375    0.93448    1.000
    O107     O        0.87185    0.16194    0.92962    1.000
    O108     O        0.81900    0.25864    0.92963    1.000
    O109     O        0.82364    0.07580    0.92963    1.000
    O110     O        0.77079    0.17251    0.92964    1.000
    O111     O        0.27870    0.04250    0.94006    1.000
    O112     O        0.93531    0.15699    0.96949    1.000
    O113     O        0.81701    0.37345    0.96952    1.000
    O114     O        0.82562    0.96099    0.96952    1.000
    O115     O        0.70731    0.17745    0.96955    1.000
    O116     O        0.96756    0.54564    0.97362    1.000
    O117     O        0.97273    0.71405    0.97443    1.000
    O118     O        0.32726    0.07955    0.95735    1.000
    O119     O        0.26994    0.12194    0.97856    1.000
    O120     O        0.37862    0.12481    0.97858    1.000
    O121     O        0.05772    0.99889    0.99972    1.000
    O122     O        0.04735    0.10262    0.99974    1.000
    O123     O        0.03962    0.21708    0.99974    1.000
    O124     O        0.98681    0.15835    0.99975    1.000
    O125     O        0.97887    0.38683    0.99974    1.000
    O126     O        0.03016    0.33598    0.99974    1.000
    O127     O        0.10556    0.04684    0.99975    1.000
    O128     O        0.09010    0.27574    0.99975    1.000
    O129     O        0.14830    0.21996    0.99975    1.000
    O130     O        0.13793    0.32369    0.99975    1.000
    O131     O        0.15603    0.10551    0.99975    1.000
    O132     O        0.20957    0.16425    0.99976    1.000
    O133     O        0.15968    0.00160    0.99976    1.000
    O134     O        0.93531    0.15699    0.03004    1.000
    O135     O        0.95749    0.63418    0.99977    1.000
    O136     O        0.92004    0.57754    0.99977    1.000
    O137     O        0.97027    0.54751    0.02510    1.000
    O138     O        0.92196    0.70852    0.99977    1.000
    O139     O        0.97007    0.71723    0.02591    1.000
    O140     O        0.26399    0.20961    0.02099    1.000
    O141     O        0.88451    0.65189    0.99978    1.000
    O142     O        0.85147    0.56132    0.99978    1.000
    O143     O        0.85435    0.75779    0.99979    1.000
    O144     O        0.81836    0.46654    0.99979    1.000
    O145     O        0.78826    0.57665    0.99979    1.000
    O146     O        0.81700    0.37345    0.03007    1.000
    O147     O        0.82425    0.86790    0.99979    1.000
    O148     O        0.79115    0.77312    0.99979    1.000
    O149     O        0.82561    0.96099    0.03007    1.000
    O150     O        0.43305    0.17017    0.99981    1.000
    O151     O        0.37268    0.21249    0.02101    1.000
    O152     O        0.75810    0.68256    0.99980    1.000
    O153     O        0.73372    0.78094    0.99980    1.000
    O154     O        0.45668    0.94211    0.99981    1.000
    O155     O        0.72254    0.59002    0.99980    1.000
    O156     O        0.46941    0.44932    0.99980    1.000
    O157     O        0.47713    0.34783    0.99981    1.000
    O158     O        0.67296    0.57922    0.02449    1.000
    O159     O        0.48658    0.22892    0.99982    1.000
    O160     O        0.49431    0.11447    0.99982    1.000
    O161     O        0.50093    0.99549    0.99982    1.000
    O162     O        0.53707    0.28759    0.99983    1.000
    O163     O        0.65581    0.17608    0.99983    1.000
    O164     O        0.70730    0.17744    0.03010    1.000
    O165     O        0.58489    0.33554    0.99983    1.000
    O166     O        0.55253    0.05869    0.99984    1.000
    O167     O        0.59527    0.23180    0.99984    1.000
    O168     O        0.60300    0.11735    0.99984    1.000
    O169     O        0.60665    0.01344    0.99985    1.000
    O170     O        0.31537    0.25490    0.04221    1.000
    O171     O        0.25639    0.30069    0.06509    1.000
    O172     O        0.36793    0.30363    0.06512    1.000
    O173     O        0.87183    0.16193    0.06994    1.000
    O174     O        0.81897    0.25863    0.06996    1.000
    O175     O        0.82362    0.07579    0.06996    1.000
    O176     O        0.77077    0.17250    0.06997    1.000
    O177     O        0.23733    0.39616    0.07924    1.000
    O178     O        0.82129    0.16721    0.13402    1.000
    O179     O        0.36352    0.38138    0.10277    1.000
    O180     O        0.90384    0.95882    0.16807    1.000
    O181     O        0.89336    0.03544    0.20599    1.000
    O182     O        0.84470    0.12440    0.20751    1.000
    O183     O        0.79787    0.21001    0.20752    1.000
    O184     O        0.75540    0.28766    0.21108    1.000
    O185     O        0.86811    0.08160    0.26466    1.000
    O186     O        0.77446    0.25281    0.26470    1.000
    O187     O        0.84471    0.12441    0.32185    1.000
    O188     O        0.89337    0.03544    0.32333    1.000
    O189     O        0.79788    0.21002    0.32186    1.000
    O190     O        0.74922    0.29899    0.32338    1.000
    O191     O        0.93491    0.95952    0.32422    1.000
    O192     O        0.82130    0.16722    0.38224    1.000
    O193     O        0.72792    0.33799    0.37364    1.000
    O194     O        0.80056    0.44483    0.44021    1.000
    O195     O        0.80814    0.34334    0.44112    1.000
    O196     O        0.81703    0.22443    0.44262    1.000
    O197     O        0.82559    0.11001    0.44263    1.000
    O198     O        0.83335    0.00621    0.44617    1.000
    O199     O        0.81276    0.28164    0.49979    1.000
    O200     O        0.82988    0.05280    0.49980    1.000
    O201     O        0.80928    0.32823    0.55341    1.000
    O202     O        0.81704    0.22443    0.55696    1.000
    O203     O        0.82560    0.11002    0.55697    1.000
    O204     O        0.83450    0.99109    0.55846    1.000
    O205     O        0.81776    0.90075    0.57170    1.000
    O206     O        0.82133    0.16723    0.61735    1.000
    O207     O        0.70700    0.31882    0.63837    1.000
    O208     O        0.93492    0.95950    0.67528    1.000
    O209     O        0.89340    0.03545    0.67620    1.000
    O210     O        0.74926    0.29900    0.67626    1.000
    O211     O        0.84474    0.12442    0.67772    1.000
    O212     O        0.79792    0.21003    0.67774    1.000
    O213     O        0.86815    0.08161    0.73488    1.000
    O214     O        0.77451    0.25284    0.73492    1.000
    O215     O        0.88721    0.04676    0.78850    1.000
    O216     O        0.75545    0.28769    0.78855    1.000
    O217     O        0.82131    0.16722    0.99979    1.000
loop_
    _geom_bond_atom_site_label_1
    _geom_bond_atom_site_label_2
    _geom_bond_distance
    _geom_bond_site_symmetry_2
    _ccdc_geom_bond_type
    C41    O102      0.99996      .   S
    C8     O102      0.99996      .   S
    C41    O103      0.69998      .   S
    C54    O103      0.69998      .   S
    C41    O104      0.70004      .   S
    C55    O104      0.70004      .   S
    C74    O105      0.55497      .   S
    C73    O105      0.55497      .   S
    C73    O106      0.75503  1_565   S
    C17    O106      0.75503      .   S
    C8     O107      0.98617      .   S
    C0     O107      0.98617      .   S
    C8     O108      0.98616      .   S
    C3     O108      0.98616      .   S
    C8     O109      0.98616      .   S
    C2     O109      0.98616  1_565   S
    C8     O110      0.98616      .   S
    C1     O110      0.98616      .   S
    C58    O111      0.56997      .   S
    C18    O111      0.56997      .   S
    C0     O112      0.60965      .   S
    C36    O112      0.60965      .   S
    C3     O113      0.60966      .   S
    C38    O113      0.60966      .   S
    C2     O114      0.60965      .   S
    C28    O114      0.60965      .   S
    C1     O115      0.60966      .   S
    C10    O115      0.60966      .   S
    C76    O116      0.56999      .   S
    C35    O116      0.56999      .   S
    C63    O117      0.57000      .   S
    C34    O117      0.57000      .   S
    C18    O118      0.69998      .   S
    C17    O118      0.69998      .   S
    C18    O119      0.70000      .   S
    C19    O119      0.70000      .   S
    C17    O120      0.69992      .   S
    C22    O120      0.69992      .   S
    C72    O121      0.56995      .   S
    C25    O121      0.56995  1_545   S
    C37    O122      0.70004      .   S
    C25    O122      0.70004      .   S
    C37    O123      0.69997      .   S
    C24    O123      0.69997      .   S
    C37    O124      0.74500  1_455   S
    C36    O124      0.74500      .   S
    C65    O125      0.55497  1_455   S
    C66    O125      0.55497      .   S
    C65    O126      0.75499      .   S
    C24    O126      0.75499      .   S
    C25    O127      0.70001      .   S
    C26    O127      0.70001      .   S
    C24    O128      0.70002      .   S
    C23    O128      0.70002      .   S
    C23    O129      0.69996      .   S
    C27    O129      0.69996      .   S
    C23    O130      0.56999      .   S
    C101   O130      0.56999      .   S
    C27    O131      0.70001      .   S
    C26    O131      0.70001      .   S
    C27    O132      0.75902      .   S
    C19    O132      0.75902      .   S
    C26    O133      0.56995      .   S
    C64    O133      0.56995  1_565   S
    C36    O134      0.60968  1_556   S
    C6     O134      0.60968      .   S
    C35    O135      0.70001      .   S
    C34    O135      0.70001      .   S
    C35    O136      0.69999      .   S
    C31    O136      0.69999      .   S
    C35    O137      0.57001  1_556   S
    C84    O137      0.57001      .   S
    C34    O138      0.69999      .   S
    C30    O138      0.69999      .   S
    C34    O139      0.56997  1_556   S
    C61    O139      0.56997      .   S
    C19    O140      0.70003  1_556   S
    C20    O140      0.70003      .   S
    C31    O141      0.70001      .   S
    C30    O141      0.70001      .   S
    C31    O142      0.69999      .   S
    C39    O142      0.69999      .   S
    C30    O143      0.69997      .   S
    C29    O143      0.69997      .   S
    C39    O144      0.74500      .   S
    C38    O144      0.74500      .   S
    C39    O145      0.70003      .   S
    C32    O145      0.70003      .   S
    C38    O146      0.60965  1_556   S
    C9     O146      0.60965      .   S
    C29    O147      0.74500      .   S
    C28    O147      0.74500      .   S
    C29    O148      0.70000      .   S
    C33    O148      0.70000      .   S
    C28    O149      0.60967  1_556   S
    C4     O149      0.60967      .   S
    C22    O150      0.75902      .   S
    C14    O150      0.75902      .   S
    C22    O151      0.70004  1_556   S
    C21    O151      0.70004      .   S
    C33    O152      0.69999      .   S
    C32    O152      0.69999      .   S
    C33    O153      0.56996      .   S
    C62    O153      0.56996      .   S
    C80    O154      0.55497      .   S
    C79    O154      0.55497      .   S
    C32    O155      0.75499      .   S
    C59    O155      0.75499      .   S
    C97    O156      0.55496      .   S
    C96    O156      0.55496      .   S
    C96    O157      0.75501      .   S
    C13    O157      0.75501      .   S
    C59    O158      0.55497  1_556   S
    C60    O158      0.55497      .   S
    C14    O159      0.69999      .   S
    C13    O159      0.69999      .   S
    C14    O160      0.70005      .   S
    C15    O160      0.70005      .   S
    C79    O161      0.75498      .   S
    C15    O161      0.75498  1_545   S
    C13    O162      0.70001      .   S
    C12    O162      0.70001      .   S
    C10    O163      0.74500      .   S
    C11    O163      0.74500      .   S
    C10    O164      0.60967  1_556   S
    C5     O164      0.60967      .   S
    C93    O165      0.56997      .   S
    C12    O165      0.56997      .   S
    C15    O166      0.69999      .   S
    C16    O166      0.69999      .   S
    C12    O167      0.69994      .   S
    C11    O167      0.69994      .   S
    C11    O168      0.70001      .   S
    C16    O168      0.70001      .   S
    C16    O169      0.56996      .   S
    C92    O169      0.56996  1_565   S
    C20    O170      0.69999      .   S
    C21    O170      0.69999      .   S
    C20    O171      0.75501      .   S
    C94    O171      0.75501      .   S
    C21    O172      0.75499      .   S
    C98    O172      0.75499      .   S
    C6     O173      0.98616      .   S
    C7     O173      0.98616      .   S
    C9     O174      0.98616      .   S
    C7     O174      0.98616      .   S
    C4     O175      0.98616  1_565   S
    C7     O175      0.98616      .   S
    C5     O176      0.98616      .   S
    C7     O176      0.98616      .   S
    C95    O177      0.55498      .   S
    C94    O177      0.55498      .   S
    C7     O178      0.99996      .   S
    C40    O178      0.99996      .   S
    C98    O179      0.55497      .   S
    C99    O179      0.55497      .   S
    C82    O180      0.55497      .   S
    C81    O180      0.55497      .   S
    C81    O181      0.75499  1_565   S
    C42    O181      0.75499      .   S
    C40    O182      0.69993      .   S
    C42    O182      0.69993      .   S
    C40    O183      0.70000      .   S
    C46    O183      0.70000      .   S
    C100   O184      0.56996      .   S
    C46    O184      0.56996      .   S
    C42    O185      0.70001      .   S
    C43    O185      0.70001      .   S
    C46    O186      0.70000      .   S
    C45    O186      0.70000      .   S
    C43    O187      0.70000      .   S
    C44    O187      0.70000      .   S
    C43    O188      0.75501      .   S
    C90    O188      0.75501  1_565   S
    C45    O189      0.70004      .   S
    C44    O189      0.70004      .   S
    C45    O190      0.75498      .   S
    C88    O190      0.75498      .   S
    C91    O191      0.55497      .   S
    C90    O191      0.55497      .   S
    C44    O192      0.75903      .   S
    C52    O192      0.75903      .   S
    C88    O193      0.55497      .   S
    C89    O193      0.55497      .   S
    C85    O194      0.55497      .   S
    C86    O194      0.55497      .   S
    C85    O195      0.75503      .   S
    C47    O195      0.75503      .   S
    C52    O196      0.69992      .   S
    C47    O196      0.69992      .   S
    C52    O197      0.70004      .   S
    C51    O197      0.70004      .   S
    C87    O198      0.56997  1_565   S
    C51    O198      0.56997      .   S
    C47    O199      0.69997      .   S
    C48    O199      0.69997      .   S
    C51    O200      0.70000      .   S
    C50    O200      0.70000      .   S
    C48    O201      0.56997      .   S
    C69    O201      0.56997      .   S
    C48    O202      0.70000      .   S
    C49    O202      0.70000      .   S
    C50    O203      0.70003      .   S
    C49    O203      0.70003      .   S
    C50    O204      0.75500  1_545   S
    C70    O204      0.75500      .   S
    C71    O205      0.55497      .   S
    C70    O205      0.55497      .   S
    C49    O206      0.75902      .   S
    C57    O206      0.75902      .   S
    C68    O207      0.55497      .   S
    C67    O207      0.55497      .   S
    C77    O208      0.55498      .   S
    C78    O208      0.55498      .   S
    C77    O209      0.75501  1_565   S
    C53    O209      0.75501      .   S
    C67    O210      0.75497      .   S
    C56    O210      0.75497      .   S
    C57    O211      0.69995      .   S
    C53    O211      0.69995      .   S
    C57    O212      0.70001      .   S
    C56    O212      0.70001      .   S
    C53    O213      0.70002      .   S
    C54    O213      0.70002      .   S
    C56    O214      0.70001      .   S
    C55    O214      0.70001      .   S
    C54    O215      0.56996      .   S
    C83    O215      0.56996      .   S
    C55    O216      0.56994      .   S
    C75    O216      0.56994      .   S
    C7     O217      1.46520  1_554   S
    C8     O217      1.46520      .   S
