# CIF file generated by openbabel 3.1.0, see https://openbabel.org
data_I
_chemical_name_common ''
_cell_length_a 19.2889
_cell_length_b 10.6546
_cell_length_c 18.3662
_cell_angle_alpha 89.995
_cell_angle_beta 89.9771
_cell_angle_gamma 83.8106
_space_group_name_H-M_alt 'P 1'
_space_group_name_Hall 'P 1'
loop_
    _symmetry_equiv_pos_as_xyz
    x,y,z
loop_
    _atom_site_label
    _atom_site_type_symbol
    _atom_site_fract_x
    _atom_site_fract_y
    _atom_site_fract_z
    _atom_site_occupancy
    Zr0      Zr       0.92238    0.15666    0.93922    1.000
    Zr1      Zr       0.72026    0.17779    0.93927    1.000
    Zr2      Zr       0.82596    0.98438    0.93924    1.000
    Zr3      Zr       0.81667    0.35006    0.93924    1.000
    Zr4      Zr       0.82595    0.98438    0.06034    1.000
    Zr5      Zr       0.72024    0.17778    0.06037    1.000
    Zr6      Zr       0.92236    0.15665    0.06032    1.000
    Zr7      Zr       0.82130    0.16721    0.07957    1.000
    Zr8      Zr       0.82132    0.16722    0.92002    1.000
    Zr9      Zr       0.81665    0.35005    0.06034    1.000
    Zr10     Zr       0.69437    0.17711    0.99982    1.000
    Zr11     Zr       0.82527    0.93760    0.99979    1.000
    Zr12     Zr       0.94825    0.15733    0.99976    1.000
    Zr13     Zr       0.81734    0.39684    0.99979    1.000
    O14      O        0.87185    0.16194    0.92962    1.000
    O15      O        0.81900    0.25864    0.92963    1.000
    O16      O        0.82364    0.07580    0.92963    1.000
    O17      O        0.77079    0.17251    0.92964    1.000
    O18      O        0.93531    0.15699    0.96949    1.000
    O19      O        0.81701    0.37345    0.96952    1.000
    O20      O        0.82562    0.96099    0.96952    1.000
    O21      O        0.70731    0.17745    0.96955    1.000
    O22      O        0.93531    0.15699    0.03004    1.000
    O23      O        0.81700    0.37345    0.03007    1.000
    O24      O        0.82561    0.96099    0.03007    1.000
    O25      O        0.70730    0.17744    0.03010    1.000
    O26      O        0.87183    0.16193    0.06994    1.000
    O27      O        0.81897    0.25863    0.06996    1.000
    O28      O        0.82362    0.07579    0.06996    1.000
    O29      O        0.77077    0.17250    0.06997    1.000
    O30      O        0.82131    0.16722    0.99979    1.000
    N31      N        0.85523    0.65041    0.00307    1.000
    O32      O        0.83974    0.75915    0.00143    1.000
    O33      O        0.83680    0.55847    0.00143    1.000
    N34      N        0.82322    0.15572    0.49142    1.000
    O35      O        0.82225    0.16147    0.31272    1.000
    O36      O        0.82227    0.16147    0.67849    1.000
    N37      N        0.31779    0.18521    0.00206    1.000
    O38      O        0.15230    0.17178    0.00091    1.000
    O39      O        0.48680    0.18065    0.00095    1.000
loop_
    _geom_bond_atom_site_label_1
    _geom_bond_atom_site_label_2
    _geom_bond_distance
    _geom_bond_site_symmetry_2
    _ccdc_geom_bond_type
    Zr8    O14       0.98617      .   S
    Zr0    O14       0.98617      .   S
    Zr8    O15       0.98616      .   S
    Zr3    O15       0.98616      .   S
    Zr8    O16       0.98616      .   S
    Zr2    O16       0.98616  1_565   S
    Zr8    O17       0.98616      .   S
    Zr1    O17       0.98616      .   S
    Zr0    O18       0.60965      .   S
    Zr12   O18       0.60965      .   S
    Zr3    O19       0.60966      .   S
    Zr13   O19       0.60966      .   S
    Zr2    O20       0.60965      .   S
    Zr11   O20       0.60965      .   S
    Zr1    O21       0.60966      .   S
    Zr10   O21       0.60966      .   S
    Zr12   O22       0.60968  1_556   S
    Zr6    O22       0.60968      .   S
    Zr13   O23       0.60965  1_556   S
    Zr9    O23       0.60965      .   S
    Zr11   O24       0.60967  1_556   S
    Zr4    O24       0.60967      .   S
    Zr10   O25       0.60967  1_556   S
    Zr5    O25       0.60967      .   S
    Zr6    O26       0.98616      .   S
    Zr7    O26       0.98616      .   S
    Zr9    O27       0.98616      .   S
    Zr7    O27       0.98616      .   S
    Zr4    O28       0.98616  1_565   S
    Zr7    O28       0.98616      .   S
    Zr5    O29       0.98616      .   S
    Zr7    O29       0.98616      .   S
    Zr7    O30       1.46520  1_554   S
    Zr8    O30       1.46520      .   S
    N31    O32       1.16530      .   S
    Zr11   O32       1.89185  1_556   S
    N31    O33       1.07790      .   S
    Zr13   O33       1.80189  1_556   S
    N34    O35       3.28265      .   S
    Zr7    O35       4.28247      .   S
    N34    O36       3.43643      .   S
    Zr8    O36       4.43626      .   S
    N37    O38       3.21081      .   S
    Zr12   O38       3.95553  1_656   S
    N37    O39       3.25514      .   S
    Zr10   O39       3.99986  1_556   S
