# CIF file generated by openbabel 2.4.90, see http://openbabel.sf.net
data_I
_chemical_name_common ''
_cell_length_a 11.184
_cell_length_b 11.184
_cell_length_c 14.591
_cell_angle_alpha 90
_cell_angle_beta 90
_cell_angle_gamma 120
_space_group_name_H-M_alt 'P 1'
_space_group_name_Hall 'P 1'
loop_
    _symmetry_equiv_pos_as_xyz
    x,y,z
loop_
    _atom_site_label
    _atom_site_type_symbol
    _atom_site_fract_x
    _atom_site_fract_y
    _atom_site_fract_z
    _atom_site_occupancy
    O0      O    0.05900   0.05900   0.00000   1.000
    C1      C    0.19200   0.19200   0.00000   1.000
    C2      C    0.13000   0.13400   0.10500   1.000
    O3      O    0.24800   0.09500   0.89500   1.000
    O4      O    0.15300   0.90500   0.10500   1.000
    O5      O    0.84700   0.75200   0.89500   1.000
    O6      O    0.75200   0.84700   0.10500   1.000
    O7      O    0.90500   0.15300   0.89500   1.000
    O8      O    0.94100   0.00000   0.00000   1.000
    O9      O    0.00000   0.94100   0.00000   1.000
    C10     C    0.00000   0.80800   0.00000   1.000
    C11     C    0.80800   0.00000   0.00000   1.000
    C12     C    0.13400   0.13000   0.89500   1.000
    C13     C    0.00400   0.87000   0.10500   1.000
    C14     C    0.99600   0.86600   0.89500   1.000
    C15     C    0.86600   0.99600   0.10500   1.000
    C16     C    0.87000   0.00400   0.89500   1.000
    O17     O    0.26800   0.53800   0.14800   1.000
    C18     C    0.12300   0.56400   0.25000   1.000
    C19     C    0.24700   0.62400   0.18900   1.000
    O20     O    0.27000   0.73200   0.14800   1.000
    O21     O    0.46200   0.73000   0.14800   1.000
    O22     O    0.46200   0.73000   0.35200   1.000
    O23     O    0.27000   0.73200   0.35200   1.000
    O24     O    0.26800   0.53800   0.35200   1.000
    C25     C    0.43600   0.55900   0.25000   1.000
    C26     C    0.44100   0.87700   0.25000   1.000
    C27     C    0.37700   0.75300   0.18900   1.000
    C28     C    0.37600   0.62300   0.18900   1.000
    C29     C    0.37600   0.62300   0.31100   1.000
    C30     C    0.37700   0.75300   0.31100   1.000
    C31     C    0.24700   0.62400   0.31100   1.000
    O32     O    0.09500   0.24800   0.10500   1.000
    O33     O    0.90900   0.17300   0.25000   1.000
    C34     C    0.93500   0.48200   0.01900   1.000
    C35     C    0.06200   0.27100   0.25000   1.000
    O36     O    0.15300   0.90500   0.39500   1.000
    O37     O    0.75200   0.84700   0.39500   1.000
    O38     O    0.09500   0.24800   0.39500   1.000
    O39     O    0.82700   0.73600   0.25000   1.000
    O40     O    0.26400   0.09100   0.25000   1.000
    C41     C    0.06500   0.54700   0.98100   1.000
    C42     C    0.93500   0.48200   0.48100   1.000
    C43     C    0.06500   0.54700   0.51900   1.000
    C44     C    0.54700   0.06500   0.01900   1.000
    C45     C    0.48200   0.93500   0.98100   1.000
    C46     C    0.72900   0.79100   0.25000   1.000
    C47     C    0.20900   0.93800   0.25000   1.000
    O48     O    0.24800   0.09500   0.60500   1.000
    O49     O    0.84700   0.75200   0.60500   1.000
    O50     O    0.90500   0.15300   0.60500   1.000
    O51     O    0.05900   0.05900   0.50000   1.000
    O52     O    0.94100   0.00000   0.50000   1.000
    O53     O    0.00000   0.94100   0.50000   1.000
    C54     C    0.19200   0.19200   0.50000   1.000
    C55     C    0.80800   0.00000   0.50000   1.000
    C56     C    0.00000   0.80800   0.50000   1.000
    C57     C    0.13000   0.13400   0.39500   1.000
    C58     C    0.86600   0.99600   0.39500   1.000
    C59     C    0.00400   0.87000   0.39500   1.000
    C60     C    0.13400   0.13000   0.60500   1.000
    C61     C    0.99600   0.86600   0.60500   1.000
    C62     C    0.87000   0.00400   0.60500   1.000
    O63     O    0.53800   0.26800   0.85200   1.000
    O64     O    0.73000   0.46200   0.85200   1.000
    O65     O    0.73200   0.27000   0.85200   1.000
    O66     O    0.53800   0.26800   0.64800   1.000
    O67     O    0.73000   0.46200   0.64800   1.000
    O68     O    0.73200   0.27000   0.64800   1.000
    C69     C    0.56400   0.12300   0.75000   1.000
    C70     C    0.55900   0.43600   0.75000   1.000
    C71     C    0.87700   0.44100   0.75000   1.000
    C72     C    0.62400   0.24700   0.81100   1.000
    C73     C    0.62300   0.37600   0.81100   1.000
    C74     C    0.75300   0.37700   0.81100   1.000
    C75     C    0.62400   0.24700   0.68900   1.000
    C76     C    0.62300   0.37600   0.68900   1.000
    C77     C    0.75300   0.37700   0.68900   1.000
    O78     O    0.17300   0.90900   0.75000   1.000
    O79     O    0.73600   0.82700   0.75000   1.000
    O80     O    0.09100   0.26400   0.75000   1.000
    C81     C    0.51800   0.45300   0.01900   1.000
    C82     C    0.51800   0.45300   0.48100   1.000
    C83     C    0.54700   0.06500   0.48100   1.000
    C84     C    0.45300   0.51800   0.98100   1.000
    C85     C    0.48200   0.93500   0.51900   1.000
    C86     C    0.45300   0.51800   0.51900   1.000
    C87     C    0.27100   0.06200   0.75000   1.000
    C88     C    0.79100   0.72900   0.75000   1.000
    C89     C    0.93800   0.20900   0.75000   1.000
loop_
    _geom_bond_atom_site_label_1
    _geom_bond_atom_site_label_2
    _geom_bond_distance
    _geom_bond_site_symmetry_2
    _ccdc_geom_bond_type
    C16    O7        1.50926      .   S
    C16    C11       1.67302  1_556   S
    C14    O5        1.50926      .   S
    C14    C10       1.67302  1_656   S
    C12    O3        1.50926      .   S
    C12    C1        1.67302  1_556   S
    C41    C34       1.37580  1_456   S
    C45    C44       1.37580  1_566   S
    O0     O9        1.14290  1_545   S
    O0     O8        1.14290  1_455   S
    O9     O8        1.14290  1_465   S
    C1     C2        1.67302      .   S
    C10    C13       1.67302      .   S
    C11    C15       1.67302  1_545   S
    C81    C84       1.37580  1_554   S
    C15    O6        1.50926      .   S
    O32    C2        1.50926      .   S
    C13    O4        1.50926      .   S
    O17    C28       1.25391      .   S
    O17    C19       1.25062      .   S
    O21    C28       1.25062      .   S
    O21    C27       1.25391      .   S
    O20    C27       1.25062      .   S
    O20    C19       1.25391      .   S
    C28    C27       1.44836      .   S
    C28    C19       1.44836      .   S
    C27    C19       1.44836      .   S
    O39    C46       1.50128      .   S
    O40    C47       1.50128  1_545   S
    C35    O33       1.50128  1_455   S
    C29    C30       1.44836      .   S
    C29    C31       1.44836      .   S
    C29    O24       1.25391      .   S
    C29    O22       1.25062      .   S
    C30    C31       1.44836      .   S
    C30    O23       1.25062      .   S
    C30    O22       1.25391      .   S
    C31    O24       1.25062      .   S
    C31    O23       1.25391      .   S
    C59    O36       1.50926      .   S
    C59    C56       1.67302      .   S
    C58    O37       1.50926      .   S
    C58    C55       1.67302  1_565   S
    C57    O38       1.50926      .   S
    C57    C54       1.67302      .   S
    C83    C85       1.37580  1_545   S
    C82    C86       1.37580      .   S
    C42    C43       1.37580  1_655   S
    O51    O53       1.14290  1_545   S
    O51    O52       1.14290  1_455   S
    O53    O52       1.14290  1_465   S
    C55    C62       1.67302      .   S
    C54    C60       1.67302      .   S
    C56    C61       1.67302  1_455   S
    O49    C61       1.50926      .   S
    O50    C62       1.50926      .   S
    C60    O48       1.50926      .   S
    O67    C77       1.25391      .   S
    O67    C76       1.25062      .   S
    O68    C77       1.25062      .   S
    O68    C75       1.25391      .   S
    O66    C76       1.25391      .   S
    O66    C75       1.25062      .   S
    C77    C76       1.44836      .   S
    C77    C75       1.44836      .   S
    C76    C75       1.44836      .   S
    C89    O80       1.50128  1_655   S
    C88    O79       1.50128      .   S
    C87    O78       1.50128  1_545   S
    C74    C73       1.44836      .   S
    C74    C72       1.44836      .   S
    C74    O65       1.25062      .   S
    C74    O64       1.25391      .   S
    C73    C72       1.44836      .   S
    C73    O64       1.25062      .   S
    C73    O63       1.25391      .   S
    C72    O65       1.25391      .   S
    C72    O63       1.25062      .   S
