# CIF file generated by openbabel 2.4.90, see http://openbabel.sf.net
data_I
_chemical_name_common ''
_cell_length_a 11.184
_cell_length_b 11.184
_cell_length_c 14.591
_cell_angle_alpha 90
_cell_angle_beta 90
_cell_angle_gamma 120
_space_group_name_H-M_alt 'P 1'
_space_group_name_Hall 'P 1'
loop_
    _symmetry_equiv_pos_as_xyz
    x,y,z
loop_
    _atom_site_label
    _atom_site_type_symbol
    _atom_site_fract_x
    _atom_site_fract_y
    _atom_site_fract_z
    _atom_site_occupancy
    C0      C    0.93500   0.48200   0.01900   1.000
    C1      C    0.06500   0.54700   0.98100   1.000
    C2      C    0.93500   0.48200   0.48100   1.000
    C3      C    0.06500   0.54700   0.51900   1.000
    C4      C    0.54700   0.06500   0.01900   1.000
    C5      C    0.48200   0.93500   0.98100   1.000
    C6      C    0.51800   0.45300   0.01900   1.000
    C7      C    0.51800   0.45300   0.48100   1.000
    C8      C    0.54700   0.06500   0.48100   1.000
    C9      C    0.45300   0.51800   0.98100   1.000
    C10     C    0.48200   0.93500   0.51900   1.000
    C11     C    0.45300   0.51800   0.51900   1.000
loop_
    _geom_bond_atom_site_label_1
    _geom_bond_atom_site_label_2
    _geom_bond_distance
    _geom_bond_site_symmetry_2
    _ccdc_geom_bond_type
    C1     C0        1.37580  1_456   S
    C5     C4        1.37580  1_566   S
    C6     C9        1.37580  1_554   S
    C8     C10       1.37580  1_545   S
    C7     C11       1.37580      .   S
    C2     C3        1.37580  1_655   S
