# CIF file generated by openbabel 2.4.90, see http://openbabel.sf.net
data_I
_chemical_name_common ''
_cell_length_a 11.184
_cell_length_b 11.184
_cell_length_c 14.591
_cell_angle_alpha 90
_cell_angle_beta 90
_cell_angle_gamma 120
_space_group_name_H-M_alt 'P 1'
_space_group_name_Hall 'P 1'
loop_
    _symmetry_equiv_pos_as_xyz
    x,y,z
loop_
    _atom_site_label
    _atom_site_type_symbol
    _atom_site_fract_x
    _atom_site_fract_y
    _atom_site_fract_z
    _atom_site_occupancy
    Fe0     Fe   0.76900   0.23700   0.25000   1.000
    O1      O    0.66600   0.33300   0.25000   1.000
    O2      O    0.89300   0.37000   0.15100   1.000
    O3      O    0.90900   0.17300   0.25000   1.000
    O4      O    0.88100   0.55900   0.15400   1.000
    C5      C    0.91900   0.48200   0.11400   1.000
    C6      C    0.93500   0.48200   0.01900   1.000
    C7      C    0.06200   0.27100   0.25000   1.000
    Fe8     Fe   0.76300   0.53200   0.25000   1.000
    Fe9     Fe   0.46800   0.23100   0.25000   1.000
    Fe10    Fe   0.23100   0.46800   0.75000   1.000
    Fe11    Fe   0.23700   0.76900   0.75000   1.000
    Fe12    Fe   0.53200   0.76300   0.75000   1.000
    O13     O    0.10700   0.47700   0.84900   1.000
    O14     O    0.89300   0.37000   0.34900   1.000
    O15     O    0.10700   0.47700   0.65100   1.000
    O16     O    0.47700   0.10700   0.15100   1.000
    O17     O    0.37000   0.89300   0.84900   1.000
    O18     O    0.63000   0.52300   0.15100   1.000
    O19     O    0.63000   0.52300   0.34900   1.000
    O20     O    0.47700   0.10700   0.34900   1.000
    O21     O    0.82700   0.73600   0.25000   1.000
    O22     O    0.26400   0.09100   0.25000   1.000
    O23     O    0.11900   0.67800   0.84600   1.000
    O24     O    0.88100   0.55900   0.34600   1.000
    O25     O    0.11900   0.67800   0.65400   1.000
    O26     O    0.67800   0.11900   0.15400   1.000
    O27     O    0.55900   0.88100   0.84600   1.000
    O28     O    0.67800   0.11900   0.34600   1.000
    O29     O    0.44100   0.32200   0.15400   1.000
    O30     O    0.44100   0.32200   0.34600   1.000
    C31     C    0.08100   0.56300   0.88600   1.000
    C32     C    0.91900   0.48200   0.38600   1.000
    C33     C    0.08100   0.56300   0.61400   1.000
    C34     C    0.56300   0.08100   0.11400   1.000
    C35     C    0.48200   0.91900   0.88600   1.000
    C36     C    0.06500   0.54700   0.98100   1.000
    C37     C    0.93500   0.48200   0.48100   1.000
    C38     C    0.06500   0.54700   0.51900   1.000
    C39     C    0.54700   0.06500   0.01900   1.000
    C40     C    0.48200   0.93500   0.98100   1.000
    C41     C    0.72900   0.79100   0.25000   1.000
    C42     C    0.20900   0.93800   0.25000   1.000
    O43     O    0.66700   0.33300   0.25000   1.000
    O44     O    0.66700   0.33400   0.25000   1.000
    O45     O    0.33300   0.66600   0.75000   1.000
    O46     O    0.33300   0.66700   0.75000   1.000
    O47     O    0.33400   0.66700   0.75000   1.000
    O48     O    0.52300   0.63000   0.84900   1.000
    O49     O    0.37000   0.89300   0.65100   1.000
    O50     O    0.52300   0.63000   0.65100   1.000
    O51     O    0.17300   0.90900   0.75000   1.000
    O52     O    0.73600   0.82700   0.75000   1.000
    O53     O    0.09100   0.26400   0.75000   1.000
    O54     O    0.32200   0.44100   0.84600   1.000
    O55     O    0.55900   0.88100   0.65400   1.000
    O56     O    0.32200   0.44100   0.65400   1.000
    C57     C    0.51800   0.43700   0.11400   1.000
    C58     C    0.51800   0.43700   0.38600   1.000
    C59     C    0.56300   0.08100   0.38600   1.000
    C60     C    0.43700   0.51800   0.88600   1.000
    C61     C    0.48200   0.91900   0.61400   1.000
    C62     C    0.43700   0.51800   0.61400   1.000
    C63     C    0.51800   0.45300   0.01900   1.000
    C64     C    0.51800   0.45300   0.48100   1.000
    C65     C    0.54700   0.06500   0.48100   1.000
    C66     C    0.45300   0.51800   0.98100   1.000
    C67     C    0.48200   0.93500   0.51900   1.000
    C68     C    0.45300   0.51800   0.51900   1.000
    C69     C    0.27100   0.06200   0.75000   1.000
    C70     C    0.79100   0.72900   0.75000   1.000
    C71     C    0.93800   0.20900   0.75000   1.000
loop_
    _geom_bond_atom_site_label_1
    _geom_bond_atom_site_label_2
    _geom_bond_distance
    _geom_bond_site_symmetry_2
    _ccdc_geom_bond_type
    Fe10   O56       1.84293      .   S
    Fe10   O45       1.91805      .   S
    Fe10   O54       1.84293      .   S
    Fe11   O23       1.84293      .   S
    Fe11   O25       1.84293      .   S
    Fe11   O46       1.91805      .   S
    Fe12   O27       1.84293      .   S
    Fe12   O55       1.84293      .   S
    Fe12   O47       1.91805      .   S
    O27    C35       1.27627      .   S
    O23    C31       1.27627      .   S
    O17    C35       1.25730      .   S
    O13    C31       1.25730      .   S
    C35    C40       1.39765      .   S
    C31    C36       1.39765      .   S
    C36    C6        1.37580  1_456   S
    C40    C39       1.37580  1_566   S
    C39    C34       1.39765      .   S
    C6     C5        1.39765      .   S
    C63    C57       1.39765      .   S
    C63    C66       1.37580  1_554   S
    C5     O2        1.25730      .   S
    C5     O4        1.27627      .   S
    C57    O18       1.25730      .   S
    C57    O29       1.27627      .   S
    C34    O16       1.25730      .   S
    C34    O26       1.27627      .   S
    O4     Fe8       1.84293      .   S
    O29    Fe9       1.84293      .   S
    O26    Fe0       1.84293      .   S
    O21    C41       1.50128      .   S
    O22    C42       1.50128  1_545   S
    O43    Fe0       1.91805      .   S
    O44    Fe8       1.91805      .   S
    Fe9    O1        1.91805      .   S
    Fe9    O30       1.84293      .   S
    Fe8    O24       1.84293      .   S
    C7     O3        1.50128  1_455   S
    Fe0    O28       1.84293      .   S
    O24    C32       1.27627      .   S
    O28    C59       1.27627      .   S
    O30    C58       1.27627      .   S
    O19    C58       1.25730      .   S
    O14    C32       1.25730      .   S
    O20    C59       1.25730      .   S
    C58    C64       1.39765      .   S
    C32    C37       1.39765      .   S
    C59    C65       1.39765      .   S
    C65    C67       1.37580  1_545   S
    C64    C68       1.37580      .   S
    C37    C38       1.37580  1_655   S
    C38    C33       1.39765      .   S
    C67    C61       1.39765      .   S
    C68    C62       1.39765      .   S
    C62    O50       1.25730      .   S
    C62    O56       1.27627      .   S
    C33    O15       1.25730      .   S
    C33    O25       1.27627      .   S
    C61    O49       1.25730      .   S
    C61    O55       1.27627      .   S
    C71    O53       1.50128  1_655   S
    C70    O52       1.50128      .   S
    C69    O51       1.50128  1_545   S
    O54    C60       1.27627      .   S
    O48    C60       1.25730      .   S
    C60    C66       1.39765      .   S
    O1     Fe0       1.92784      .   S
    O1     Fe8       1.92764      .   S
    O2     Fe0       2.03951      .   S
    O3     Fe0       2.02106      .   S
    O13    Fe10      2.03951      .   S
    O14    Fe0       2.03951      .   S
    O15    Fe10      2.03951      .   S
    O16    Fe9       2.03951      .   S
    O17    Fe11      2.03951      .   S
    O18    Fe8       2.03951      .   S
    O19    Fe8       2.03951      .   S
    O20    Fe9       2.03951      .   S
    O21    Fe8       2.02106      .   S
    O22    Fe9       2.02106      .   S
    O43    Fe8       1.92784      .   S
    O43    Fe9       1.92764      .   S
    O44    Fe0       1.92764      .   S
    O44    Fe9       1.92784      .   S
    O45    Fe11      1.92784      .   S
    O45    Fe12      1.92764      .   S
    O46    Fe10      1.92764      .   S
    O46    Fe12      1.92784      .   S
    O47    Fe10      1.92784      .   S
    O47    Fe11      1.92764      .   S
    O48    Fe12      2.03951      .   S
    O49    Fe11      2.03951      .   S
    O50    Fe12      2.03951      .   S
    O51    Fe11      2.02106      .   S
    O52    Fe12      2.02106      .   S
    O53    Fe10      2.02106      .   S
