# CIF file generated by openbabel 2.4.90, see http://openbabel.sf.net
data_I
_chemical_name_common ''
_cell_length_a 11.184
_cell_length_b 11.184
_cell_length_c 14.591
_cell_angle_alpha 90
_cell_angle_beta 90
_cell_angle_gamma 120
_space_group_name_H-M_alt 'P 1'
_space_group_name_Hall 'P 1'
loop_
    _symmetry_equiv_pos_as_xyz
    x,y,z
loop_
    _atom_site_label
    _atom_site_type_symbol
    _atom_site_fract_x
    _atom_site_fract_y
    _atom_site_fract_z
    _atom_site_occupancy
    C0      C    0.91900   0.48200   0.11400   1.000
    C1      C    0.08100   0.56300   0.88600   1.000
    C2      C    0.91900   0.48200   0.38600   1.000
    C3      C    0.08100   0.56300   0.61400   1.000
    C4      C    0.56300   0.08100   0.11400   1.000
    C5      C    0.48200   0.91900   0.88600   1.000
    C6      C    0.51800   0.43700   0.11400   1.000
    C7      C    0.51800   0.43700   0.38600   1.000
    C8      C    0.56300   0.08100   0.38600   1.000
    C9      C    0.43700   0.51800   0.88600   1.000
    C10     C    0.48200   0.91900   0.61400   1.000
    C11     C    0.43700   0.51800   0.61400   1.000
