# CIF file generated by openbabel 2.4.90, see http://openbabel.sf.net
data_I
_chemical_name_common ''
_cell_length_a 11.184
_cell_length_b 11.184
_cell_length_c 14.591
_cell_angle_alpha 90
_cell_angle_beta 90
_cell_angle_gamma 120
_space_group_name_H-M_alt 'P 1'
_space_group_name_Hall 'P 1'
loop_
    _symmetry_equiv_pos_as_xyz
    x,y,z
loop_
    _atom_site_label
    _atom_site_type_symbol
    _atom_site_fract_x
    _atom_site_fract_y
    _atom_site_fract_z
    _atom_site_occupancy
    C0      C    0.09500   0.24800   0.10500   1.000
    C1      C    0.05900   0.05900   0.00000   1.000
    C2      C    0.19200   0.19200   0.00000   1.000
    C3      C    0.13000   0.13400   0.10500   1.000
    C4      C    0.24800   0.09500   0.89500   1.000
    C5      C    0.15300   0.90500   0.10500   1.000
    C6      C    0.84700   0.75200   0.89500   1.000
    C7      C    0.75200   0.84700   0.10500   1.000
    C8      C    0.90500   0.15300   0.89500   1.000
    C9      C    0.94100   0.00000   0.00000   1.000
    C10     C    0.00000   0.94100   0.00000   1.000
    C11     C    0.00000   0.80800   0.00000   1.000
    C12     C    0.80800   0.00000   0.00000   1.000
    C13     C    0.13400   0.13000   0.89500   1.000
    C14     C    0.00400   0.87000   0.10500   1.000
    C15     C    0.99600   0.86600   0.89500   1.000
    C16     C    0.86600   0.99600   0.10500   1.000
    C17     C    0.87000   0.00400   0.89500   1.000
    C18     C    0.26800   0.53800   0.14800   1.000
    C19     C    0.12300   0.56400   0.25000   1.000
    C20     C    0.24700   0.62400   0.18900   1.000
    C21     C    0.27000   0.73200   0.14800   1.000
    C22     C    0.46200   0.73000   0.14800   1.000
    C23     C    0.46200   0.73000   0.35200   1.000
    C24     C    0.27000   0.73200   0.35200   1.000
    C25     C    0.26800   0.53800   0.35200   1.000
    C26     C    0.43600   0.55900   0.25000   1.000
    C27     C    0.44100   0.87700   0.25000   1.000
    C28     C    0.37700   0.75300   0.18900   1.000
    C29     C    0.37600   0.62300   0.18900   1.000
    C30     C    0.37600   0.62300   0.31100   1.000
    C31     C    0.37700   0.75300   0.31100   1.000
    C32     C    0.24700   0.62400   0.31100   1.000
    C33     C    0.76900   0.23700   0.25000   1.000
    C34     C    0.66600   0.33300   0.25000   1.000
    C35     C    0.89300   0.37000   0.15100   1.000
    C36     C    0.90900   0.17300   0.25000   1.000
    C37     C    0.88100   0.55900   0.15400   1.000
    C38     C    0.91900   0.48200   0.11400   1.000
    C39     C    0.93500   0.48200   0.01900   1.000
    C40     C    0.06200   0.27100   0.25000   1.000
    C41     C    0.76300   0.53200   0.25000   1.000
    C42     C    0.46800   0.23100   0.25000   1.000
    C43     C    0.23100   0.46800   0.75000   1.000
    C44     C    0.23700   0.76900   0.75000   1.000
    C45     C    0.53200   0.76300   0.75000   1.000
    C46     C    0.10700   0.47700   0.84900   1.000
    C47     C    0.89300   0.37000   0.34900   1.000
    C48     C    0.10700   0.47700   0.65100   1.000
    C49     C    0.47700   0.10700   0.15100   1.000
    C50     C    0.37000   0.89300   0.84900   1.000
    C51     C    0.63000   0.52300   0.15100   1.000
    C52     C    0.63000   0.52300   0.34900   1.000
    C53     C    0.47700   0.10700   0.34900   1.000
    C54     C    0.82700   0.73600   0.25000   1.000
    C55     C    0.26400   0.09100   0.25000   1.000
    C56     C    0.11900   0.67800   0.84600   1.000
    C57     C    0.88100   0.55900   0.34600   1.000
    C58     C    0.11900   0.67800   0.65400   1.000
    C59     C    0.67800   0.11900   0.15400   1.000
    C60     C    0.55900   0.88100   0.84600   1.000
    C61     C    0.67800   0.11900   0.34600   1.000
    C62     C    0.44100   0.32200   0.15400   1.000
    C63     C    0.44100   0.32200   0.34600   1.000
    C64     C    0.08100   0.56300   0.88600   1.000
    C65     C    0.91900   0.48200   0.38600   1.000
    C66     C    0.08100   0.56300   0.61400   1.000
    C67     C    0.56300   0.08100   0.11400   1.000
    C68     C    0.48200   0.91900   0.88600   1.000
    C69     C    0.06500   0.54700   0.98100   1.000
    C70     C    0.93500   0.48200   0.48100   1.000
    C71     C    0.06500   0.54700   0.51900   1.000
    C72     C    0.54700   0.06500   0.01900   1.000
    C73     C    0.48200   0.93500   0.98100   1.000
    C74     C    0.72900   0.79100   0.25000   1.000
    C75     C    0.20900   0.93800   0.25000   1.000
    C76     C    0.09500   0.24800   0.39500   1.000
    C77     C    0.75200   0.84700   0.39500   1.000
    C78     C    0.15300   0.90500   0.39500   1.000
    C79     C    0.24800   0.09500   0.60500   1.000
    C80     C    0.84700   0.75200   0.60500   1.000
    C81     C    0.90500   0.15300   0.60500   1.000
    C82     C    0.05900   0.05900   0.50000   1.000
    C83     C    0.94100   0.00000   0.50000   1.000
    C84     C    0.00000   0.94100   0.50000   1.000
    C85     C    0.19200   0.19200   0.50000   1.000
    C86     C    0.80800   0.00000   0.50000   1.000
    C87     C    0.00000   0.80800   0.50000   1.000
    C88     C    0.13000   0.13400   0.39500   1.000
    C89     C    0.86600   0.99600   0.39500   1.000
    C90     C    0.00400   0.87000   0.39500   1.000
    C91     C    0.13400   0.13000   0.60500   1.000
    C92     C    0.99600   0.86600   0.60500   1.000
    C93     C    0.87000   0.00400   0.60500   1.000
    C94     C    0.53800   0.26800   0.85200   1.000
    C95     C    0.73000   0.46200   0.85200   1.000
    C96     C    0.73200   0.27000   0.85200   1.000
    C97     C    0.53800   0.26800   0.64800   1.000
    C98     C    0.73000   0.46200   0.64800   1.000
    C99     C    0.73200   0.27000   0.64800   1.000
    C100    C    0.56400   0.12300   0.75000   1.000
    C101    C    0.55900   0.43600   0.75000   1.000
    C102    C    0.87700   0.44100   0.75000   1.000
    C103    C    0.62400   0.24700   0.81100   1.000
    C104    C    0.62300   0.37600   0.81100   1.000
    C105    C    0.75300   0.37700   0.81100   1.000
    C106    C    0.62400   0.24700   0.68900   1.000
    C107    C    0.62300   0.37600   0.68900   1.000
    C108    C    0.75300   0.37700   0.68900   1.000
    C109    C    0.66700   0.33300   0.25000   1.000
    C110    C    0.66700   0.33400   0.25000   1.000
    C111    C    0.33300   0.66600   0.75000   1.000
    C112    C    0.33300   0.66700   0.75000   1.000
    C113    C    0.33400   0.66700   0.75000   1.000
    C114    C    0.52300   0.63000   0.84900   1.000
    C115    C    0.37000   0.89300   0.65100   1.000
    C116    C    0.52300   0.63000   0.65100   1.000
    C117    C    0.17300   0.90900   0.75000   1.000
    C118    C    0.73600   0.82700   0.75000   1.000
    C119    C    0.09100   0.26400   0.75000   1.000
    C120    C    0.32200   0.44100   0.84600   1.000
    C121    C    0.55900   0.88100   0.65400   1.000
    C122    C    0.32200   0.44100   0.65400   1.000
    C123    C    0.51800   0.43700   0.11400   1.000
    C124    C    0.51800   0.43700   0.38600   1.000
    C125    C    0.56300   0.08100   0.38600   1.000
    C126    C    0.43700   0.51800   0.88600   1.000
    C127    C    0.48200   0.91900   0.61400   1.000
    C128    C    0.43700   0.51800   0.61400   1.000
    C129    C    0.51800   0.45300   0.01900   1.000
    C130    C    0.51800   0.45300   0.48100   1.000
    C131    C    0.54700   0.06500   0.48100   1.000
    C132    C    0.45300   0.51800   0.98100   1.000
    C133    C    0.48200   0.93500   0.51900   1.000
    C134    C    0.45300   0.51800   0.51900   1.000
    C135    C    0.27100   0.06200   0.75000   1.000
    C136    C    0.79100   0.72900   0.75000   1.000
    C137    C    0.93800   0.20900   0.75000   1.000
    O138    O    0.27650   0.45450   0.70200   1.000
    O139    O    0.28200   0.56700   0.75000   1.000
    O140    O    0.27650   0.45450   0.79800   1.000
    O141    O    0.17800   0.72350   0.79800   1.000
    O142    O    0.17800   0.72350   0.70200   1.000
    O143    O    0.28500   0.71800   0.75000   1.000
    O144    O    0.54550   0.82200   0.79800   1.000
    O145    O    0.54550   0.82200   0.70200   1.000
    O146    O    0.43300   0.71500   0.75000   1.000
    O147    O    0.52050   0.90000   0.86600   1.000
    O148    O    0.10000   0.62050   0.86600   1.000
    O149    O    0.42600   0.90600   0.86750   1.000
    O150    O    0.09400   0.52000   0.86750   1.000
    O151    O    0.48200   0.92700   0.93350   1.000
    O152    O    0.07300   0.55500   0.93350   1.000
    O153    O    0.88750   0.07850   0.89500   1.000
    O154    O    0.83900   0.00200   0.94750   1.000
    O155    O    0.92150   0.80900   0.89500   1.000
    O156    O    0.99800   0.83700   0.94750   1.000
    O157    O    0.19100   0.11250   0.89500   1.000
    O158    O    0.16300   0.16100   0.94750   1.000
    O159    O    0.00000   0.51450   0.00000   1.000
    O160    O    0.51450   0.00000   0.00000   1.000
    O161    O    0.02950   0.00000   0.00000   1.000
    O162    O    0.00000   0.02950   0.00000   1.000
    O163    O    0.97050   0.97050   0.00000   1.000
    O164    O    0.16100   0.16300   0.05250   1.000
    O165    O    0.00200   0.83900   0.05250   1.000
    O166    O    0.83700   0.99800   0.05250   1.000
    O167    O    0.55500   0.07300   0.06650   1.000
    O168    O    0.92700   0.48200   0.06650   1.000
    O169    O    0.51800   0.44500   0.06650   1.000
    O170    O    0.48550   0.48550   0.00000   1.000
    O171    O    0.80900   0.92150   0.10500   1.000
    O172    O    0.11250   0.19100   0.10500   1.000
    O173    O    0.07850   0.88750   0.10500   1.000
    O174    O    0.90600   0.42600   0.13250   1.000
    O175    O    0.90000   0.52050   0.13400   1.000
    O176    O    0.57400   0.48000   0.13250   1.000
    O177    O    0.47950   0.37950   0.13400   1.000
    O178    O    0.52000   0.09400   0.13250   1.000
    O179    O    0.62050   0.10000   0.13400   1.000
    O180    O    0.32200   0.58050   0.16850   1.000
    O181    O    0.25750   0.58100   0.16850   1.000
    O182    O    0.41900   0.67650   0.16850   1.000
    O183    O    0.41950   0.74150   0.16850   1.000
    O184    O    0.32350   0.74250   0.16850   1.000
    O185    O    0.25850   0.67800   0.16850   1.000
    O186    O    0.82200   0.54550   0.20200   1.000
    O187    O    0.45450   0.27650   0.20200   1.000
    O188    O    0.72350   0.17800   0.20200   1.000
    O189    O    0.37650   0.68800   0.18900   1.000
    O190    O    0.31150   0.62350   0.18900   1.000
    O191    O    0.31200   0.68850   0.18900   1.000
    O192    O    0.77800   0.76350   0.25000   1.000
    O193    O    0.23650   0.01450   0.25000   1.000
    O194    O    0.71800   0.28500   0.25000   1.000
    O195    O    0.71500   0.43300   0.25000   1.000
    O196    O    0.56700   0.28200   0.25000   1.000
    O197    O    0.45450   0.27650   0.29800   1.000
    O198    O    0.82200   0.54550   0.29800   1.000
    O199    O    0.98550   0.22200   0.25000   1.000
    O200    O    0.72350   0.17800   0.29800   1.000
    O201    O    0.37650   0.68800   0.31100   1.000
    O202    O    0.31150   0.62350   0.31100   1.000
    O203    O    0.32200   0.58050   0.33150   1.000
    O204    O    0.41900   0.67650   0.33150   1.000
    O205    O    0.31200   0.68850   0.31100   1.000
    O206    O    0.32350   0.74250   0.33150   1.000
    O207    O    0.41950   0.74150   0.33150   1.000
    O208    O    0.25750   0.58100   0.33150   1.000
    O209    O    0.25850   0.67800   0.33150   1.000
    O210    O    0.90000   0.52050   0.36600   1.000
    O211    O    0.62050   0.10000   0.36600   1.000
    O212    O    0.47950   0.37950   0.36600   1.000
    O213    O    0.57400   0.48000   0.36750   1.000
    O214    O    0.90600   0.42600   0.36750   1.000
    O215    O    0.52000   0.09400   0.36750   1.000
    O216    O    0.51800   0.44500   0.43350   1.000
    O217    O    0.92700   0.48200   0.43350   1.000
    O218    O    0.55500   0.07300   0.43350   1.000
    O219    O    0.07850   0.88750   0.39500   1.000
    O220    O    0.00200   0.83900   0.44750   1.000
    O221    O    0.80900   0.92150   0.39500   1.000
    O222    O    0.83700   0.99800   0.44750   1.000
    O223    O    0.11250   0.19100   0.39500   1.000
    O224    O    0.16100   0.16300   0.44750   1.000
    O225    O    0.51450   0.00000   0.50000   1.000
    O226    O    0.48550   0.48550   0.50000   1.000
    O227    O    0.00000   0.51450   0.50000   1.000
    O228    O    0.02950   0.00000   0.50000   1.000
    O229    O    0.00000   0.02950   0.50000   1.000
    O230    O    0.97050   0.97050   0.50000   1.000
    O231    O    0.83900   0.00200   0.55250   1.000
    O232    O    0.16300   0.16100   0.55250   1.000
    O233    O    0.99800   0.83700   0.55250   1.000
    O234    O    0.07300   0.55500   0.56650   1.000
    O235    O    0.48200   0.92700   0.56650   1.000
    O236    O    0.44500   0.51800   0.56650   1.000
    O237    O    0.92150   0.80900   0.60500   1.000
    O238    O    0.88750   0.07850   0.60500   1.000
    O239    O    0.19100   0.11250   0.60500   1.000
    O240    O    0.48000   0.57400   0.63250   1.000
    O241    O    0.37950   0.47950   0.63400   1.000
    O242    O    0.09400   0.52000   0.63250   1.000
    O243    O    0.10000   0.62050   0.63400   1.000
    O244    O    0.42600   0.90600   0.63250   1.000
    O245    O    0.52050   0.90000   0.63400   1.000
    O246    O    0.74150   0.41950   0.66850   1.000
    O247    O    0.67650   0.41900   0.66850   1.000
    O248    O    0.74250   0.32350   0.66850   1.000
    O249    O    0.67800   0.25850   0.66850   1.000
    O250    O    0.58050   0.32200   0.66850   1.000
    O251    O    0.58100   0.25750   0.66850   1.000
    O252    O    0.68800   0.37650   0.68900   1.000
    O253    O    0.68850   0.31200   0.68900   1.000
    O254    O    0.62350   0.31150   0.68900   1.000
    O255    O    0.01450   0.23650   0.75000   1.000
    O256    O    0.76350   0.77800   0.75000   1.000
    O257    O    0.22200   0.98550   0.75000   1.000
    O258    O    0.68800   0.37650   0.81100   1.000
    O259    O    0.68850   0.31200   0.81100   1.000
    O260    O    0.74250   0.32350   0.83150   1.000
    O261    O    0.74150   0.41950   0.83150   1.000
    O262    O    0.62350   0.31150   0.81100   1.000
    O263    O    0.67650   0.41900   0.83150   1.000
    O264    O    0.58050   0.32200   0.83150   1.000
    O265    O    0.67800   0.25850   0.83150   1.000
    O266    O    0.58100   0.25750   0.83150   1.000
    O267    O    0.37950   0.47950   0.86600   1.000
    O268    O    0.48000   0.57400   0.86750   1.000
    O269    O    0.44500   0.51800   0.93350   1.000
    O270    O    0.71750   0.28500   0.25000   1.000
    O271    O    0.71450   0.43250   0.25000   1.000
    O272    O    0.83100   0.30350   0.20050   1.000
    O273    O    0.83900   0.20500   0.25000   1.000
    O274    O    0.16900   0.47250   0.79950   1.000
    O275    O    0.83100   0.30350   0.29950   1.000
    O276    O    0.16900   0.47250   0.70050   1.000
    O277    O    0.47250   0.16900   0.20050   1.000
    O278    O    0.30350   0.83100   0.79950   1.000
    O279    O    0.69650   0.52750   0.20050   1.000
    O280    O    0.69650   0.52750   0.29950   1.000
    O281    O    0.47250   0.16900   0.29950   1.000
    O282    O    0.79500   0.63400   0.25000   1.000
    O283    O    0.36600   0.16100   0.25000   1.000
    O284    O    0.71500   0.43250   0.25000   1.000
    O285    O    0.56750   0.28200   0.25000   1.000
    O286    O    0.71800   0.28550   0.25000   1.000
    O287    O    0.56750   0.28250   0.25000   1.000
    O288    O    0.28500   0.71750   0.75000   1.000
    O289    O    0.43250   0.71450   0.75000   1.000
    O290    O    0.28200   0.56750   0.75000   1.000
    O291    O    0.43250   0.71500   0.75000   1.000
    O292    O    0.28250   0.56750   0.75000   1.000
    O293    O    0.28550   0.71800   0.75000   1.000
    O294    O    0.52750   0.69650   0.79950   1.000
    O295    O    0.30350   0.83100   0.70050   1.000
    O296    O    0.52750   0.69650   0.70050   1.000
    O297    O    0.20500   0.83900   0.75000   1.000
    O298    O    0.63400   0.79500   0.75000   1.000
    O299    O    0.16100   0.36600   0.75000   1.000
loop_
    _geom_bond_atom_site_label_1
    _geom_bond_atom_site_label_2
    _geom_bond_distance
    _geom_bond_site_symmetry_2
    _ccdc_geom_bond_type
    C43    O138      0.92146      .   S
    C122   O138      0.92146      .   S
    C43    O139      0.95902      .   S
    C111   O139      0.95902      .   S
    C43    O140      0.92146      .   S
    C120   O140      0.92146      .   S
    C44    O141      0.92146      .   S
    C56    O141      0.92146      .   S
    C44    O142      0.92146      .   S
    C58    O142      0.92146      .   S
    C44    O143      0.95902      .   S
    C112   O143      0.95902      .   S
    C45    O144      0.92146      .   S
    C60    O144      0.92146      .   S
    C45    O145      0.92146      .   S
    C121   O145      0.92146      .   S
    C45    O146      0.95902      .   S
    C113   O146      0.95902      .   S
    C60    O147      0.63813      .   S
    C68    O147      0.63813      .   S
    C56    O148      0.63813      .   S
    C64    O148      0.63813      .   S
    C50    O149      0.62865      .   S
    C68    O149      0.62865      .   S
    C46    O150      0.62865      .   S
    C64    O150      0.62865      .   S
    C68    O151      0.69882      .   S
    C73    O151      0.69882      .   S
    C64    O152      0.69882      .   S
    C69    O152      0.69882      .   S
    C17    O153      0.75463      .   S
    C8     O153      0.75463      .   S
    C17    O154      0.83651      .   S
    C12    O154      0.83651  1_554   S
    C15    O155      0.75463      .   S
    C6     O155      0.75463      .   S
    C15    O156      0.83651      .   S
    C11    O156      0.83651  1_454   S
    C13    O157      0.75463      .   S
    C4     O157      0.75463      .   S
    C13    O158      0.83651      .   S
    C2     O158      0.83651  1_554   S
    C69    O159      0.68790  1_556   S
    C39    O159      0.68790  1_655   S
    C73    O160      0.68790  1_566   S
    C72    O160      0.68790      .   S
    C1     O161      0.57145      .   S
    C10    O161      0.57145  1_565   S
    C1     O162      0.57145      .   S
    C9     O162      0.57145  1_655   S
    C10    O163      0.57145  1_455   S
    C9     O163      0.57145  1_545   S
    C2     O164      0.83651      .   S
    C3     O164      0.83651      .   S
    C11    O165      0.83651      .   S
    C14    O165      0.83651      .   S
    C12    O166      0.83651  1_545   S
    C16    O166      0.83651      .   S
    C72    O167      0.69882      .   S
    C67    O167      0.69882      .   S
    C39    O168      0.69882      .   S
    C38    O168      0.69882      .   S
    C129   O169      0.69882      .   S
    C123   O169      0.69882      .   S
    C129   O170      0.68790      .   S
    C132   O170      0.68790  1_556   S
    C16    O171      0.75463      .   S
    C7     O171      0.75463      .   S
    C0     O172      0.75463      .   S
    C3     O172      0.75463      .   S
    C14    O173      0.75463      .   S
    C5     O173      0.75463      .   S
    C38    O174      0.62865      .   S
    C35    O174      0.62865      .   S
    C38    O175      0.63813      .   S
    C37    O175      0.63813      .   S
    C123   O176      0.62865      .   S
    C51    O176      0.62865      .   S
    C123   O177      0.63813      .   S
    C62    O177      0.63813      .   S
    C67    O178      0.62865      .   S
    C49    O178      0.62865      .   S
    C67    O179      0.63813      .   S
    C59    O179      0.63813      .   S
    C18    O180      0.62696      .   S
    C29    O180      0.62696      .   S
    C18    O181      0.62531      .   S
    C20    O181      0.62531      .   S
    C22    O182      0.62531      .   S
    C29    O182      0.62531      .   S
    C22    O183      0.62696      .   S
    C28    O183      0.62696      .   S
    C21    O184      0.62531      .   S
    C28    O184      0.62531      .   S
    C21    O185      0.62696      .   S
    C20    O185      0.62696      .   S
    C37    O186      0.92146      .   S
    C41    O186      0.92146      .   S
    C62    O187      0.92146      .   S
    C42    O187      0.92146      .   S
    C59    O188      0.92146      .   S
    C33    O188      0.92146      .   S
    C29    O189      0.72418      .   S
    C28    O189      0.72418      .   S
    C29    O190      0.72418      .   S
    C20    O190      0.72418      .   S
    C28    O191      0.72418      .   S
    C20    O191      0.72418      .   S
    C54    O192      0.75064      .   S
    C74    O192      0.75064      .   S
    C55    O193      0.75064      .   S
    C75    O193      0.75064  1_565   S
    C109   O194      0.95902      .   S
    C33    O194      0.95902      .   S
    C110   O195      0.95902      .   S
    C41    O195      0.95902      .   S
    C42    O196      0.95902      .   S
    C34    O196      0.95902      .   S
    C42    O197      0.92146      .   S
    C63    O197      0.92146      .   S
    C41    O198      0.92146      .   S
    C57    O198      0.92146      .   S
    C40    O199      0.75064  1_455   S
    C36    O199      0.75064      .   S
    C33    O200      0.92146      .   S
    C61    O200      0.92146      .   S
    C30    O201      0.72418      .   S
    C31    O201      0.72418      .   S
    C30    O202      0.72418      .   S
    C32    O202      0.72418      .   S
    C30    O203      0.62696      .   S
    C25    O203      0.62696      .   S
    C30    O204      0.62531      .   S
    C23    O204      0.62531      .   S
    C31    O205      0.72418      .   S
    C32    O205      0.72418      .   S
    C31    O206      0.62531      .   S
    C24    O206      0.62531      .   S
    C31    O207      0.62696      .   S
    C23    O207      0.62696      .   S
    C32    O208      0.62531      .   S
    C25    O208      0.62531      .   S
    C32    O209      0.62696      .   S
    C24    O209      0.62696      .   S
    C57    O210      0.63813      .   S
    C65    O210      0.63813      .   S
    C61    O211      0.63813      .   S
    C125   O211      0.63813      .   S
    C63    O212      0.63813      .   S
    C124   O212      0.63813      .   S
    C52    O213      0.62865      .   S
    C124   O213      0.62865      .   S
    C47    O214      0.62865      .   S
    C65    O214      0.62865      .   S
    C53    O215      0.62865      .   S
    C125   O215      0.62865      .   S
    C124   O216      0.69882      .   S
    C130   O216      0.69882      .   S
    C65    O217      0.69882      .   S
    C70    O217      0.69882      .   S
    C125   O218      0.69882      .   S
    C131   O218      0.69882      .   S
    C90    O219      0.75463      .   S
    C78    O219      0.75463      .   S
    C90    O220      0.83651      .   S
    C87    O220      0.83651      .   S
    C89    O221      0.75463      .   S
    C77    O221      0.75463      .   S
    C89    O222      0.83651      .   S
    C86    O222      0.83651  1_545   S
    C88    O223      0.75463      .   S
    C76    O223      0.75463      .   S
    C88    O224      0.83651      .   S
    C85    O224      0.83651      .   S
    C131   O225      0.68790      .   S
    C133   O225      0.68790  1_565   S
    C130   O226      0.68790      .   S
    C134   O226      0.68790      .   S
    C70    O227      0.68790  1_655   S
    C71    O227      0.68790      .   S
    C82    O228      0.57145      .   S
    C84    O228      0.57145  1_565   S
    C82    O229      0.57145      .   S
    C83    O229      0.57145  1_655   S
    C84    O230      0.57145  1_455   S
    C83    O230      0.57145  1_545   S
    C86    O231      0.83651      .   S
    C93    O231      0.83651      .   S
    C85    O232      0.83651      .   S
    C91    O232      0.83651      .   S
    C87    O233      0.83651  1_455   S
    C92    O233      0.83651      .   S
    C71    O234      0.69882      .   S
    C66    O234      0.69882      .   S
    C133   O235      0.69882      .   S
    C127   O235      0.69882      .   S
    C134   O236      0.69882      .   S
    C128   O236      0.69882      .   S
    C80    O237      0.75463      .   S
    C92    O237      0.75463      .   S
    C81    O238      0.75463      .   S
    C93    O238      0.75463      .   S
    C91    O239      0.75463      .   S
    C79    O239      0.75463      .   S
    C128   O240      0.62865      .   S
    C116   O240      0.62865      .   S
    C128   O241      0.63813      .   S
    C122   O241      0.63813      .   S
    C66    O242      0.62865      .   S
    C48    O242      0.62865      .   S
    C66    O243      0.63813      .   S
    C58    O243      0.63813      .   S
    C127   O244      0.62865      .   S
    C115   O244      0.62865      .   S
    C127   O245      0.63813      .   S
    C121   O245      0.63813      .   S
    C98    O246      0.62696      .   S
    C108   O246      0.62696      .   S
    C98    O247      0.62531      .   S
    C107   O247      0.62531      .   S
    C99    O248      0.62531      .   S
    C108   O248      0.62531      .   S
    C99    O249      0.62696      .   S
    C106   O249      0.62696      .   S
    C97    O250      0.62696      .   S
    C107   O250      0.62696      .   S
    C97    O251      0.62531      .   S
    C106   O251      0.62531      .   S
    C108   O252      0.72418      .   S
    C107   O252      0.72418      .   S
    C108   O253      0.72418      .   S
    C106   O253      0.72418      .   S
    C107   O254      0.72418      .   S
    C106   O254      0.72418      .   S
    C137   O255      0.75064  1_655   S
    C119   O255      0.75064      .   S
    C136   O256      0.75064      .   S
    C118   O256      0.75064      .   S
    C135   O257      0.75064  1_545   S
    C117   O257      0.75064      .   S
    C105   O258      0.72418      .   S
    C104   O258      0.72418      .   S
    C105   O259      0.72418      .   S
    C103   O259      0.72418      .   S
    C105   O260      0.62531      .   S
    C96    O260      0.62531      .   S
    C105   O261      0.62696      .   S
    C95    O261      0.62696      .   S
    C104   O262      0.72418      .   S
    C103   O262      0.72418      .   S
    C104   O263      0.62531      .   S
    C95    O263      0.62531      .   S
    C104   O264      0.62696      .   S
    C94    O264      0.62696      .   S
    C103   O265      0.62696      .   S
    C96    O265      0.62696      .   S
    C103   O266      0.62531      .   S
    C94    O266      0.62531      .   S
    C120   O267      0.63813      .   S
    C126   O267      0.63813      .   S
    C114   O268      0.62865      .   S
    C126   O268      0.62865      .   S
    C126   O269      0.69882      .   S
    C132   O269      0.69882      .   S
    C34    O270      0.96392      .   S
    C33    O270      0.96392      .   S
    C34    O271      0.96382      .   S
    C41    O271      0.96382      .   S
    C35    O272      1.01975      .   S
    C33    O272      1.01975      .   S
    C36    O273      1.01053      .   S
    C33    O273      1.01053      .   S
    C46    O274      1.01975      .   S
    C43    O274      1.01975      .   S
    C47    O275      1.01975      .   S
    C33    O275      1.01975      .   S
    C48    O276      1.01975      .   S
    C43    O276      1.01975      .   S
    C49    O277      1.01975      .   S
    C42    O277      1.01975      .   S
    C50    O278      1.01975      .   S
    C44    O278      1.01975      .   S
    C51    O279      1.01975      .   S
    C41    O279      1.01975      .   S
    C52    O280      1.01975      .   S
    C41    O280      1.01975      .   S
    C53    O281      1.01975      .   S
    C42    O281      1.01975      .   S
    C54    O282      1.01053      .   S
    C41    O282      1.01053      .   S
    C55    O283      1.01053      .   S
    C42    O283      1.01053      .   S
    C109   O284      0.96392      .   S
    C41    O284      0.96392      .   S
    C109   O285      0.96382      .   S
    C42    O285      0.96382      .   S
    C110   O286      0.96382      .   S
    C33    O286      0.96382      .   S
    C110   O287      0.96392      .   S
    C42    O287      0.96392      .   S
    C111   O288      0.96392      .   S
    C44    O288      0.96392      .   S
    C111   O289      0.96382      .   S
    C45    O289      0.96382      .   S
    C112   O290      0.96382      .   S
    C43    O290      0.96382      .   S
    C112   O291      0.96392      .   S
    C45    O291      0.96392      .   S
    C113   O292      0.96392      .   S
    C43    O292      0.96392      .   S
    C113   O293      0.96382      .   S
    C44    O293      0.96382      .   S
    C114   O294      1.01975      .   S
    C45    O294      1.01975      .   S
    C115   O295      1.01975      .   S
    C44    O295      1.01975      .   S
    C116   O296      1.01975      .   S
    C45    O296      1.01975      .   S
    C117   O297      1.01053      .   S
    C44    O297      1.01053      .   S
    C118   O298      1.01053      .   S
    C45    O298      1.01053      .   S
    C119   O299      1.01053      .   S
    C43    O299      1.01053      .   S
