# CIF file generated by openbabel 2.4.90, see http://openbabel.sf.net
data_I
_chemical_name_common ''
_cell_length_a 11.184
_cell_length_b 11.184
_cell_length_c 14.591
_cell_angle_alpha 90
_cell_angle_beta 90
_cell_angle_gamma 120
_space_group_name_H-M_alt 'P 1'
_space_group_name_Hall 'P 1'
loop_
    _symmetry_equiv_pos_as_xyz
    x,y,z
loop_
    _atom_site_label
    _atom_site_type_symbol
    _atom_site_fract_x
    _atom_site_fract_y
    _atom_site_fract_z
    _atom_site_occupancy
    Zr0     Zr   0.76900   0.23700   0.25000   1.000
    Zr1     Zr   0.66600   0.33300   0.25000   1.000
    Zr2     Zr   0.89300   0.37000   0.15100   1.000
    Zr3     Zr   0.88100   0.55900   0.15400   1.000
    Zr4     Zr   0.91900   0.48200   0.11400   1.000
    Zr5     Zr   0.76300   0.53200   0.25000   1.000
    Zr6     Zr   0.46800   0.23100   0.25000   1.000
    Zr7     Zr   0.23100   0.46800   0.75000   1.000
    Zr8     Zr   0.23700   0.76900   0.75000   1.000
    Zr9     Zr   0.53200   0.76300   0.75000   1.000
    Zr10    Zr   0.10700   0.47700   0.84900   1.000
    Zr11    Zr   0.89300   0.37000   0.34900   1.000
    Zr12    Zr   0.10700   0.47700   0.65100   1.000
    Zr13    Zr   0.47700   0.10700   0.15100   1.000
    Zr14    Zr   0.37000   0.89300   0.84900   1.000
    Zr15    Zr   0.63000   0.52300   0.15100   1.000
    Zr16    Zr   0.63000   0.52300   0.34900   1.000
    Zr17    Zr   0.47700   0.10700   0.34900   1.000
    Zr18    Zr   0.11900   0.67800   0.84600   1.000
    Zr19    Zr   0.88100   0.55900   0.34600   1.000
    Zr20    Zr   0.11900   0.67800   0.65400   1.000
    Zr21    Zr   0.67800   0.11900   0.15400   1.000
    Zr22    Zr   0.55900   0.88100   0.84600   1.000
    Zr23    Zr   0.67800   0.11900   0.34600   1.000
    Zr24    Zr   0.44100   0.32200   0.15400   1.000
    Zr25    Zr   0.44100   0.32200   0.34600   1.000
    Zr26    Zr   0.08100   0.56300   0.88600   1.000
    Zr27    Zr   0.91900   0.48200   0.38600   1.000
    Zr28    Zr   0.08100   0.56300   0.61400   1.000
    Zr29    Zr   0.56300   0.08100   0.11400   1.000
    Zr30    Zr   0.48200   0.91900   0.88600   1.000
    Zr31    Zr   0.66700   0.33300   0.25000   1.000
    Zr32    Zr   0.66700   0.33400   0.25000   1.000
    Zr33    Zr   0.33300   0.66600   0.75000   1.000
    Zr34    Zr   0.33300   0.66700   0.75000   1.000
    Zr35    Zr   0.33400   0.66700   0.75000   1.000
    Zr36    Zr   0.52300   0.63000   0.84900   1.000
    Zr37    Zr   0.37000   0.89300   0.65100   1.000
    Zr38    Zr   0.52300   0.63000   0.65100   1.000
    Zr39    Zr   0.32200   0.44100   0.84600   1.000
    Zr40    Zr   0.55900   0.88100   0.65400   1.000
    Zr41    Zr   0.32200   0.44100   0.65400   1.000
    Zr42    Zr   0.51800   0.43700   0.11400   1.000
    Zr43    Zr   0.51800   0.43700   0.38600   1.000
    Zr44    Zr   0.56300   0.08100   0.38600   1.000
    Zr45    Zr   0.43700   0.51800   0.88600   1.000
    Zr46    Zr   0.48200   0.91900   0.61400   1.000
    Zr47    Zr   0.43700   0.51800   0.61400   1.000
    O48     O    0.27650   0.45450   0.70200   1.000
    O49     O    0.28200   0.56700   0.75000   1.000
    O50     O    0.27650   0.45450   0.79800   1.000
    O51     O    0.17800   0.72350   0.79800   1.000
    O52     O    0.17800   0.72350   0.70200   1.000
    O53     O    0.28500   0.71800   0.75000   1.000
    O54     O    0.54550   0.82200   0.79800   1.000
    O55     O    0.54550   0.82200   0.70200   1.000
    O56     O    0.43300   0.71500   0.75000   1.000
    O57     O    0.52050   0.90000   0.86600   1.000
    O58     O    0.10000   0.62050   0.86600   1.000
    O59     O    0.42600   0.90600   0.86750   1.000
    O60     O    0.09400   0.52000   0.86750   1.000
    O61     O    0.90600   0.42600   0.13250   1.000
    O62     O    0.90000   0.52050   0.13400   1.000
    O63     O    0.57400   0.48000   0.13250   1.000
    O64     O    0.47950   0.37950   0.13400   1.000
    O65     O    0.52000   0.09400   0.13250   1.000
    O66     O    0.62050   0.10000   0.13400   1.000
    O67     O    0.82200   0.54550   0.20200   1.000
    O68     O    0.45450   0.27650   0.20200   1.000
    O69     O    0.72350   0.17800   0.20200   1.000
    O70     O    0.71800   0.28500   0.25000   1.000
    O71     O    0.71500   0.43300   0.25000   1.000
    O72     O    0.56700   0.28200   0.25000   1.000
    O73     O    0.45450   0.27650   0.29800   1.000
    O74     O    0.82200   0.54550   0.29800   1.000
    O75     O    0.72350   0.17800   0.29800   1.000
    O76     O    0.90000   0.52050   0.36600   1.000
    O77     O    0.62050   0.10000   0.36600   1.000
    O78     O    0.47950   0.37950   0.36600   1.000
    O79     O    0.57400   0.48000   0.36750   1.000
    O80     O    0.90600   0.42600   0.36750   1.000
    O81     O    0.52000   0.09400   0.36750   1.000
    O82     O    0.48000   0.57400   0.63250   1.000
    O83     O    0.37950   0.47950   0.63400   1.000
    O84     O    0.09400   0.52000   0.63250   1.000
    O85     O    0.10000   0.62050   0.63400   1.000
    O86     O    0.42600   0.90600   0.63250   1.000
    O87     O    0.52050   0.90000   0.63400   1.000
    O88     O    0.37950   0.47950   0.86600   1.000
    O89     O    0.48000   0.57400   0.86750   1.000
    O90     O    0.71750   0.28500   0.25000   1.000
    O91     O    0.71450   0.43250   0.25000   1.000
    O92     O    0.83100   0.30350   0.20050   1.000
    O93     O    0.16900   0.47250   0.79950   1.000
    O94     O    0.83100   0.30350   0.29950   1.000
    O95     O    0.16900   0.47250   0.70050   1.000
    O96     O    0.47250   0.16900   0.20050   1.000
    O97     O    0.30350   0.83100   0.79950   1.000
    O98     O    0.69650   0.52750   0.20050   1.000
    O99     O    0.69650   0.52750   0.29950   1.000
    O100    O    0.47250   0.16900   0.29950   1.000
    O101    O    0.71500   0.43250   0.25000   1.000
    O102    O    0.56750   0.28200   0.25000   1.000
    O103    O    0.71800   0.28550   0.25000   1.000
    O104    O    0.56750   0.28250   0.25000   1.000
    O105    O    0.28500   0.71750   0.75000   1.000
    O106    O    0.43250   0.71450   0.75000   1.000
    O107    O    0.28200   0.56750   0.75000   1.000
    O108    O    0.43250   0.71500   0.75000   1.000
    O109    O    0.28250   0.56750   0.75000   1.000
    O110    O    0.28550   0.71800   0.75000   1.000
    O111    O    0.52750   0.69650   0.79950   1.000
    O112    O    0.30350   0.83100   0.70050   1.000
    O113    O    0.52750   0.69650   0.70050   1.000
    N114    N    0.98550   0.22200   0.25000   1.000
    O115    O    0.91225   0.21350   0.25000   1.000
    N116    N    0.23650   0.01450   0.25000   1.000
    O117    O    0.30125   0.08775   0.25000   1.000
    N118    N    0.00000   0.00000   0.00000   1.000
    N119    N    0.33333   0.66667   0.16850   1.000
    N120    N    0.00000   0.51450   0.00000   1.000
    O121    O    0.96350   0.49825   0.03325   1.000
    O122    O    0.03650   0.53475   0.96675   1.000
    N123    N    0.48550   0.48550   0.50000   1.000
    O124    O    0.50175   0.46525   0.46675   1.000
    O125    O    0.46525   0.50175   0.53325   1.000
    N126    N    0.01450   0.23650   0.75000   1.000
    O127    O    0.08775   0.30125   0.75000   1.000
    N128    N    0.00000   0.84020   0.00000   1.000
    N129    N    0.84020   0.00000   0.00000   1.000
    N130    N    0.00000   0.84020   0.50000   1.000
    N131    N    0.66667   0.33333   0.83150   1.000
    N132    N    0.66667   0.33333   0.66850   1.000
    N133    N    0.56400   0.12300   0.75000   1.000
    N134    N    0.22200   0.98550   0.75000   1.000
    O135    O    0.21350   0.91225   0.75000   1.000
    N136    N    0.43600   0.55900   0.25000   1.000
    N137    N    0.51450   0.00000   0.50000   1.000
    O138    O    0.49825   0.96350   0.53325   1.000
    O139    O    0.53475   0.03650   0.46675   1.000
    N140    N    0.84020   0.00000   0.50000   1.000
    N141    N    0.15980   0.15980   0.50000   1.000
    N142    N    0.15980   0.15980   0.00000   1.000
    N143    N    0.33333   0.66667   0.33150   1.000
    N144    N    0.76350   0.77800   0.75000   1.000
    O145    O    0.69875   0.78650   0.75000   1.000
    N146    N    0.00000   0.51450   0.50000   1.000
    O147    O    0.96350   0.49825   0.46675   1.000
    O148    O    0.03650   0.53475   0.53325   1.000
    N149    N    0.00000   0.00000   0.50000   1.000
    N150    N    0.51450   0.00000   0.00000   1.000
    O151    O    0.53475   0.03650   0.03325   1.000
    O152    O    0.49825   0.96350   0.96675   1.000
    N153    N    0.77800   0.76350   0.25000   1.000
    O154    O    0.78650   0.69875   0.25000   1.000
    N155    N    0.48550   0.48550   0.00000   1.000
    O156    O    0.46525   0.50175   0.96675   1.000
    O157    O    0.50175   0.46525   0.03325   1.000
    N158    N    0.87700   0.44100   0.75000   1.000
    N159    N    0.55900   0.43600   0.75000   1.000
    N160    N    0.12300   0.56400   0.25000   1.000
    N161    N    0.44100   0.87700   0.25000   1.000
loop_
    _geom_bond_atom_site_label_1
    _geom_bond_atom_site_label_2
    _geom_bond_distance
    _geom_bond_site_symmetry_2
    _ccdc_geom_bond_type
    Zr7    O48       0.92146      .   S
    Zr41   O48       0.92146      .   S
    Zr7    O49       0.95902      .   S
    Zr33   O49       0.95902      .   S
    Zr7    O50       0.92146      .   S
    Zr39   O50       0.92146      .   S
    Zr8    O51       0.92146      .   S
    Zr18   O51       0.92146      .   S
    Zr8    O52       0.92146      .   S
    Zr20   O52       0.92146      .   S
    Zr8    O53       0.95902      .   S
    Zr34   O53       0.95902      .   S
    Zr9    O54       0.92146      .   S
    Zr22   O54       0.92146      .   S
    Zr9    O55       0.92146      .   S
    Zr40   O55       0.92146      .   S
    Zr9    O56       0.95902      .   S
    Zr35   O56       0.95902      .   S
    Zr22   O57       0.63813      .   S
    Zr30   O57       0.63813      .   S
    Zr18   O58       0.63813      .   S
    Zr26   O58       0.63813      .   S
    Zr14   O59       0.62865      .   S
    Zr30   O59       0.62865      .   S
    Zr10   O60       0.62865      .   S
    Zr26   O60       0.62865      .   S
    Zr4    O61       0.62865      .   S
    Zr2    O61       0.62865      .   S
    Zr4    O62       0.63813      .   S
    Zr3    O62       0.63813      .   S
    Zr42   O63       0.62865      .   S
    Zr15   O63       0.62865      .   S
    Zr42   O64       0.63813      .   S
    Zr24   O64       0.63813      .   S
    Zr29   O65       0.62865      .   S
    Zr13   O65       0.62865      .   S
    Zr29   O66       0.63813      .   S
    Zr21   O66       0.63813      .   S
    Zr3    O67       0.92146      .   S
    Zr5    O67       0.92146      .   S
    Zr24   O68       0.92146      .   S
    Zr6    O68       0.92146      .   S
    Zr21   O69       0.92146      .   S
    Zr0    O69       0.92146      .   S
    Zr31   O70       0.95902      .   S
    Zr0    O70       0.95902      .   S
    Zr32   O71       0.95902      .   S
    Zr5    O71       0.95902      .   S
    Zr6    O72       0.95902      .   S
    Zr1    O72       0.95902      .   S
    Zr6    O73       0.92146      .   S
    Zr25   O73       0.92146      .   S
    Zr5    O74       0.92146      .   S
    Zr19   O74       0.92146      .   S
    Zr0    O75       0.92146      .   S
    Zr23   O75       0.92146      .   S
    Zr19   O76       0.63813      .   S
    Zr27   O76       0.63813      .   S
    Zr23   O77       0.63813      .   S
    Zr44   O77       0.63813      .   S
    Zr25   O78       0.63813      .   S
    Zr43   O78       0.63813      .   S
    Zr16   O79       0.62865      .   S
    Zr43   O79       0.62865      .   S
    Zr11   O80       0.62865      .   S
    Zr27   O80       0.62865      .   S
    Zr17   O81       0.62865      .   S
    Zr44   O81       0.62865      .   S
    Zr47   O82       0.62865      .   S
    Zr38   O82       0.62865      .   S
    Zr47   O83       0.63813      .   S
    Zr41   O83       0.63813      .   S
    Zr28   O84       0.62865      .   S
    Zr12   O84       0.62865      .   S
    Zr28   O85       0.63813      .   S
    Zr20   O85       0.63813      .   S
    Zr46   O86       0.62865      .   S
    Zr37   O86       0.62865      .   S
    Zr46   O87       0.63813      .   S
    Zr40   O87       0.63813      .   S
    Zr39   O88       0.63813      .   S
    Zr45   O88       0.63813      .   S
    Zr36   O89       0.62865      .   S
    Zr45   O89       0.62865      .   S
    Zr1    O90       0.96392      .   S
    Zr0    O90       0.96392      .   S
    Zr1    O91       0.96382      .   S
    Zr5    O91       0.96382      .   S
    Zr2    O92       1.01975      .   S
    Zr0    O92       1.01975      .   S
    Zr10   O93       1.01975      .   S
    Zr7    O93       1.01975      .   S
    Zr11   O94       1.01975      .   S
    Zr0    O94       1.01975      .   S
    Zr12   O95       1.01975      .   S
    Zr7    O95       1.01975      .   S
    Zr13   O96       1.01975      .   S
    Zr6    O96       1.01975      .   S
    Zr14   O97       1.01975      .   S
    Zr8    O97       1.01975      .   S
    Zr15   O98       1.01975      .   S
    Zr5    O98       1.01975      .   S
    Zr16   O99       1.01975      .   S
    Zr5    O99       1.01975      .   S
    Zr17   O100      1.01975      .   S
    Zr6    O100      1.01975      .   S
    Zr31   O101      0.96392      .   S
    Zr5    O101      0.96392      .   S
    Zr31   O102      0.96382      .   S
    Zr6    O102      0.96382      .   S
    Zr32   O103      0.96382      .   S
    Zr0    O103      0.96382      .   S
    Zr32   O104      0.96392      .   S
    Zr6    O104      0.96392      .   S
    Zr33   O105      0.96392      .   S
    Zr8    O105      0.96392      .   S
    Zr33   O106      0.96382      .   S
    Zr9    O106      0.96382      .   S
    Zr34   O107      0.96382      .   S
    Zr7    O107      0.96382      .   S
    Zr34   O108      0.96392      .   S
    Zr9    O108      0.96392      .   S
    Zr35   O109      0.96392      .   S
    Zr7    O109      0.96392      .   S
    Zr35   O110      0.96382      .   S
    Zr8    O110      0.96382      .   S
    Zr36   O111      1.01975      .   S
    Zr9    O111      1.01975      .   S
    Zr37   O112      1.01975      .   S
    Zr8    O112      1.01975      .   S
    Zr38   O113      1.01975      .   S
    Zr9    O113      1.01975      .   S
    N114   O115      0.77608      .   S
    Zr0    O115      1.74840      .   S
    N116   O117      0.77608      .   S
    Zr6    O117      1.74840      .   S
    N120   O121      0.60071  1_455   S
    Zr4    O121      1.25638      .   S
    N120   O122      0.60071  1_554   S
    Zr26   O122      1.25638      .   S
    N123   O124      0.60071      .   S
    Zr43   O124      1.25638      .   S
    N123   O125      0.60071      .   S
    Zr47   O125      1.25638      .   S
    N126   O127      0.77608      .   S
    Zr7    O127      1.74840      .   S
    N134   O135      0.77608      .   S
    Zr8    O135      1.74840      .   S
    N137   O138      0.60071  1_545   S
    Zr46   O138      1.25638      .   S
    N137   O139      0.60071      .   S
    Zr44   O139      1.25638      .   S
    N144   O145      0.77608      .   S
    Zr9    O145      1.74840      .   S
    N146   O147      0.60071  1_455   S
    Zr27   O147      1.25638      .   S
    N146   O148      0.60071      .   S
    Zr28   O148      1.25638      .   S
    N150   O151      0.60071      .   S
    Zr29   O151      1.25638      .   S
    N150   O152      0.60071  1_544   S
    Zr30   O152      1.25638      .   S
    N153   O154      0.77608      .   S
    Zr5    O154      1.74840      .   S
    N155   O156      0.60071  1_554   S
    Zr45   O156      1.25638      .   S
    N155   O157      0.60071      .   S
    Zr42   O157      1.25638      .   S
