# CIF file generated by openbabel 2.4.90, see http://openbabel.sf.net
data_I
_chemical_name_common ''
_cell_length_a 39.222
_cell_length_b 26.018
_cell_length_c 27.887
_cell_angle_alpha 90
_cell_angle_beta 90
_cell_angle_gamma 90
_space_group_name_H-M_alt 'P 1'
_space_group_name_Hall 'P 1'
loop_
    _symmetry_equiv_pos_as_xyz
    x,y,z
loop_
    _atom_site_label
    _atom_site_type_symbol
    _atom_site_fract_x
    _atom_site_fract_y
    _atom_site_fract_z
    _atom_site_occupancy
    O0      O    0.96218   0.29020   0.62420   1.000
    O1      O    0.98509   0.17840   0.63840   1.000
    O2      O    0.15257   0.48090   0.83440   1.000
    O3      O    0.01749   0.33460   0.61870   1.000
    H4      H    0.02540   0.37080   0.61410   1.000
    O5      O    0.84829   0.00150   0.83270   1.000
    O6      O    0.81786   0.05430   0.78430   1.000
    O7      O    0.81637   0.05290   0.48230   1.000
    O8      O    0.15218   0.48590   0.42510   1.000
    O9      O    0.00919   0.18980   0.26150   1.000
    O10     O    0.07849   0.33900   0.66810   1.000
    O11     O    0.84718   0.00610   0.42950   1.000
    O12     O    0.18238   0.41970   0.45740   1.000
    O13     O    0.92138   0.15060   0.59370   1.000
    O14     O    0.03232   0.36580   0.71000   1.000
    O15     O    0.96593   0.24110   0.70180   1.000
    H16     H    0.95170   0.23900   0.73140   1.000
    O17     O    0.00865   0.18130   0.49660   1.000
    O18     O    0.18320   0.42280   0.79280   1.000
    O19     O    0.99170   0.27270   0.27480   1.000
    O20     O    0.92244   0.16310   0.68750   1.000
    O21     O    0.07750   0.32590   0.57010   1.000
    O22     O    0.96944   0.14400   0.73090   1.000
    C23     C    0.06330   0.36450   0.70090   1.000
    O24     O    0.99240   0.26680   0.48470   1.000
    C25     C    0.12380   0.42160   0.46680   1.000
    C26     C    0.15610   0.44590   0.80290   1.000
    C27     C    0.08540   0.39550   0.73350   1.000
    C28     C    0.91780   0.10480   0.75050   1.000
    O29     O    0.03102   0.33990   0.52340   1.000
    C30     C    0.84530   0.03600   0.80120   1.000
    C31     C    0.93690   0.12120   0.56510   1.000
    C32     C    0.93830   0.14080   0.72040   1.000
    C33     C    0.15530   0.44460   0.44850   1.000
    C34     C    0.84360   0.03460   0.46570   1.000
    C35     C    0.88300   0.09610   0.74860   1.000
    H36     H    0.86670   0.11160   0.72790   1.000
    C37     C    0.00190   0.21360   0.41900   1.000
    N38     N    0.90586   0.03190   0.47350   1.000
    N39     N    0.93159   0.05560   0.50170   1.000
    C40     C    0.91536   0.08830   0.53550   1.000
    C41     C    0.87961   0.08480   0.52810   1.000
    H42     H    0.86260   0.10270   0.54580   1.000
    C43     C    0.87374   0.05000   0.48980   1.000
    N44     N    0.90720   0.04810   0.80460   1.000
    C45     C    0.00120   0.22120   0.47170   1.000
    C46     C    0.12390   0.43050   0.77770   1.000
    N47     N    0.09490   0.45070   0.79150   1.000
    C48     C    0.11780   0.38570   0.50180   1.000
    H49     H    0.13430   0.36870   0.52100   1.000
    N50     N    0.07180   0.42850   0.76420   1.000
    N51     N    0.09250   0.43700   0.44950   1.000
    O52     O    0.02540   0.26480   0.68120   1.000
    O53     O    0.02508   0.25010   0.57660   1.000
    O54     O    0.04737   0.18550   0.63710   1.000
    H55     H    0.06730   0.16170   0.64000   1.000
    O56     O    0.96573   0.22070   0.56150   1.000
    H57     H    0.95140   0.21030   0.53340   1.000
    C58     C    0.06200   0.34550   0.53430   1.000
    O59     O    0.96844   0.11880   0.55800   1.000
    N60     N    0.06740   0.41130   0.47150   1.000
    C61     C    0.99610   0.24630   0.38030   1.000
    H62     H    0.98990   0.28150   0.38150   1.000
    C63     C    0.11940   0.39550   0.74070   1.000
    H64     H    0.13630   0.37600   0.72440   1.000
    N65     N    0.00960   0.16550   0.40180   1.000
    N66     N    0.00920   0.16860   0.35400   1.000
    N67     N    0.93150   0.07540   0.78400   1.000
    C68     C    0.08290   0.37910   0.50350   1.000
    C69     C    0.00110   0.21720   0.34060   1.000
    C70     C    0.99990   0.22740   0.28830   1.000
    C71     C    0.87770   0.06020   0.78320   1.000
    O72     O    0.09743   0.23090   0.58440   1.000
    O73     O    0.65257   0.98090   0.83440   1.000
    O74     O    0.34743   0.01910   0.83440   1.000
    O75     O    0.90257   0.26910   0.08440   1.000
    O76     O    0.43238   0.83030   0.70740   1.000
    O77     O    0.06762   0.66970   0.70740   1.000
    O78     O    0.68238   0.41970   0.95740   1.000
    O79     O    0.31762   0.58030   0.95740   1.000
    O80     O    0.93238   0.83030   0.20740   1.000
    O81     O    0.56762   0.66970   0.20740   1.000
    O82     O    0.03782   0.70980   0.62420   1.000
    O83     O    0.21218   0.95980   0.87420   1.000
    O84     O    0.28782   0.54020   0.87420   1.000
    O85     O    0.46218   0.29020   0.12420   1.000
    O86     O    0.53782   0.70980   0.12420   1.000
    O87     O    0.71218   0.95980   0.37420   1.000
    O88     O    0.78782   0.54020   0.37420   1.000
    O89     O    0.96218   0.79020   0.12420   1.000
    O90     O    0.03782   0.20980   0.12420   1.000
    O91     O    0.21218   0.45980   0.37420   1.000
    O92     O    0.28782   0.04020   0.37420   1.000
    O93     O    0.46218   0.79020   0.62420   1.000
    O94     O    0.53782   0.20980   0.62420   1.000
    O95     O    0.71218   0.45980   0.87420   1.000
    O96     O    0.78782   0.04020   0.87420   1.000
    O97     O    0.01491   0.82160   0.63840   1.000
    O98     O    0.23509   0.07160   0.88840   1.000
    O99     O    0.26491   0.42840   0.88840   1.000
    O100    O    0.48509   0.17840   0.13840   1.000
    O101    O    0.51491   0.82160   0.13840   1.000
    O102    O    0.73509   0.07160   0.38840   1.000
    O103    O    0.76491   0.42840   0.38840   1.000
    O104    O    0.98509   0.67840   0.13840   1.000
    O105    O    0.01491   0.32160   0.13840   1.000
    O106    O    0.23509   0.57160   0.38840   1.000
    O107    O    0.26491   0.92840   0.38840   1.000
    O108    O    0.48509   0.67840   0.63840   1.000
    O109    O    0.51491   0.32160   0.63840   1.000
    O110    O    0.73509   0.57160   0.88840   1.000
    O111    O    0.76491   0.92840   0.88840   1.000
    O112    O    0.84743   0.51910   0.83440   1.000
    O113    O    0.40257   0.76910   0.08440   1.000
    O114    O    0.09743   0.73090   0.08440   1.000
    O115    O    0.65257   0.48090   0.33440   1.000
    O116    O    0.34743   0.51910   0.33440   1.000
    O117    O    0.90257   0.76910   0.58440   1.000
    O118    O    0.59743   0.73090   0.58440   1.000
    O119    O    0.15257   0.98090   0.33440   1.000
    O120    O    0.84743   0.01910   0.33440   1.000
    O121    O    0.40257   0.26910   0.58440   1.000
    O122    O    0.81680   0.57720   0.79280   1.000
    O123    O    0.43320   0.82720   0.04280   1.000
    O124    O    0.59743   0.23090   0.08440   1.000
    O125    O    0.98251   0.66540   0.61870   1.000
    O126    O    0.26749   0.91540   0.86870   1.000
    O127    O    0.23251   0.58460   0.86870   1.000
    O128    O    0.51749   0.33460   0.11870   1.000
    O129    O    0.48251   0.66540   0.11870   1.000
    O130    O    0.76749   0.91540   0.36870   1.000
    O131    O    0.73251   0.58460   0.36870   1.000
    O132    O    0.01749   0.83460   0.11870   1.000
    O133    O    0.98251   0.16540   0.11870   1.000
    O134    O    0.26749   0.41540   0.36870   1.000
    O135    O    0.23251   0.08460   0.36870   1.000
    O136    O    0.51749   0.83460   0.61870   1.000
    O137    O    0.48251   0.16540   0.61870   1.000
    O138    O    0.76749   0.41540   0.86870   1.000
    O139    O    0.73251   0.08460   0.86870   1.000
    H140    H    0.97460   0.62920   0.61410   1.000
    H141    H    0.27540   0.87920   0.86410   1.000
    H142    H    0.22460   0.62080   0.86410   1.000
    H143    H    0.52540   0.37080   0.11410   1.000
    H144    H    0.47460   0.62920   0.11410   1.000
    H145    H    0.77540   0.87920   0.36410   1.000
    H146    H    0.72460   0.62080   0.36410   1.000
    H147    H    0.02540   0.87080   0.11410   1.000
    H148    H    0.97460   0.12920   0.11410   1.000
    H149    H    0.27540   0.37920   0.36410   1.000
    H150    H    0.22460   0.12080   0.36410   1.000
    H151    H    0.52540   0.87080   0.61410   1.000
    H152    H    0.47460   0.12920   0.61410   1.000
    H153    H    0.77540   0.37920   0.86410   1.000
    H154    H    0.72460   0.12080   0.86410   1.000
    O155    O    0.15171   0.99850   0.83270   1.000
    O156    O    0.09829   0.24850   0.08270   1.000
    O157    O    0.40171   0.25150   0.08270   1.000
    O158    O    0.34829   0.00150   0.33270   1.000
    O159    O    0.65171   0.99850   0.33270   1.000
    O160    O    0.59829   0.24850   0.58270   1.000
    O161    O    0.90171   0.25150   0.58270   1.000
    O162    O    0.84829   0.50150   0.33270   1.000
    O163    O    0.15171   0.49850   0.33270   1.000
    O164    O    0.09829   0.74850   0.58270   1.000
    O165    O    0.40171   0.75150   0.58270   1.000
    O166    O    0.34829   0.50150   0.83270   1.000
    O167    O    0.65171   0.49850   0.83270   1.000
    O168    O    0.59829   0.74850   0.08270   1.000
    O169    O    0.90171   0.75150   0.08270   1.000
    O170    O    0.18214   0.94570   0.78430   1.000
    O171    O    0.06786   0.19570   0.03430   1.000
    O172    O    0.43214   0.30430   0.03430   1.000
    O173    O    0.31786   0.05430   0.28430   1.000
    O174    O    0.68214   0.94570   0.28430   1.000
    O175    O    0.56786   0.19570   0.53430   1.000
    O176    O    0.93214   0.30430   0.53430   1.000
    O177    O    0.81786   0.55430   0.28430   1.000
    O178    O    0.18214   0.44570   0.28430   1.000
    O179    O    0.06786   0.69570   0.53430   1.000
    O180    O    0.43214   0.80430   0.53430   1.000
    O181    O    0.31786   0.55430   0.78430   1.000
    O182    O    0.68214   0.44570   0.78430   1.000
    O183    O    0.56786   0.69570   0.03430   1.000
    O184    O    0.93214   0.80430   0.03430   1.000
    O185    O    0.18363   0.94710   0.48230   1.000
    O186    O    0.06637   0.19710   0.73230   1.000
    O187    O    0.43363   0.30290   0.73230   1.000
    O188    O    0.31637   0.05290   0.98230   1.000
    O189    O    0.68363   0.94710   0.98230   1.000
    O190    O    0.56637   0.19710   0.23230   1.000
    O191    O    0.93363   0.30290   0.23230   1.000
    O192    O    0.81637   0.55290   0.98230   1.000
    O193    O    0.18363   0.44710   0.98230   1.000
    O194    O    0.06637   0.69710   0.23230   1.000
    O195    O    0.43363   0.80290   0.23230   1.000
    O196    O    0.31637   0.55290   0.48230   1.000
    O197    O    0.68363   0.44710   0.48230   1.000
    O198    O    0.56637   0.69710   0.73230   1.000
    O199    O    0.93363   0.80290   0.73230   1.000
    O200    O    0.84782   0.51410   0.42510   1.000
    O201    O    0.40218   0.76410   0.67510   1.000
    O202    O    0.09782   0.73590   0.67510   1.000
    O203    O    0.65218   0.48590   0.92510   1.000
    O204    O    0.34782   0.51410   0.92510   1.000
    O205    O    0.90218   0.76410   0.17510   1.000
    O206    O    0.59782   0.73590   0.17510   1.000
    O207    O    0.15218   0.98590   0.92510   1.000
    O208    O    0.84782   0.01410   0.92510   1.000
    O209    O    0.40218   0.26410   0.17510   1.000
    O210    O    0.09782   0.23590   0.17510   1.000
    O211    O    0.65218   0.98590   0.42510   1.000
    O212    O    0.34782   0.01410   0.42510   1.000
    O213    O    0.90218   0.26410   0.67510   1.000
    O214    O    0.59782   0.23590   0.67510   1.000
    O215    O    0.99081   0.81020   0.26150   1.000
    O216    O    0.25919   0.06020   0.51150   1.000
    O217    O    0.24081   0.43980   0.51150   1.000
    O218    O    0.50919   0.18980   0.76150   1.000
    O219    O    0.49081   0.81020   0.76150   1.000
    O220    O    0.75919   0.06020   0.01150   1.000
    O221    O    0.74081   0.43980   0.01150   1.000
    O222    O    0.00919   0.68980   0.76150   1.000
    O223    O    0.99081   0.31020   0.76150   1.000
    O224    O    0.25919   0.56020   0.01150   1.000
    O225    O    0.24081   0.93980   0.01150   1.000
    O226    O    0.50919   0.68980   0.26150   1.000
    O227    O    0.49081   0.31020   0.26150   1.000
    O228    O    0.75919   0.56020   0.51150   1.000
    O229    O    0.74081   0.93980   0.51150   1.000
    O230    O    0.92151   0.66100   0.66810   1.000
    O231    O    0.32849   0.91100   0.91810   1.000
    O232    O    0.17151   0.58900   0.91810   1.000
    O233    O    0.57849   0.33900   0.16810   1.000
    O234    O    0.42151   0.66100   0.16810   1.000
    O235    O    0.82849   0.91100   0.41810   1.000
    O236    O    0.67151   0.58900   0.41810   1.000
    O237    O    0.07849   0.83900   0.16810   1.000
    O238    O    0.92151   0.16100   0.16810   1.000
    O239    O    0.32849   0.41100   0.41810   1.000
    O240    O    0.17151   0.08900   0.41810   1.000
    O241    O    0.57849   0.83900   0.66810   1.000
    O242    O    0.42151   0.16100   0.66810   1.000
    O243    O    0.82849   0.41100   0.91810   1.000
    O244    O    0.67151   0.08900   0.91810   1.000
    O245    O    0.15282   0.99390   0.42950   1.000
    O246    O    0.09718   0.24390   0.67950   1.000
    O247    O    0.40282   0.25610   0.67950   1.000
    O248    O    0.34718   0.00610   0.92950   1.000
    O249    O    0.65282   0.99390   0.92950   1.000
    O250    O    0.59718   0.24390   0.17950   1.000
    O251    O    0.90282   0.25610   0.17950   1.000
    O252    O    0.84718   0.50610   0.92950   1.000
    O253    O    0.15282   0.49390   0.92950   1.000
    O254    O    0.09718   0.74390   0.17950   1.000
    O255    O    0.40282   0.75610   0.17950   1.000
    O256    O    0.34718   0.50610   0.42950   1.000
    O257    O    0.65282   0.49390   0.42950   1.000
    O258    O    0.59718   0.74390   0.67950   1.000
    O259    O    0.90282   0.75610   0.67950   1.000
    O260    O    0.81762   0.58030   0.45740   1.000
    C261    C    0.84360   0.53460   0.96570   1.000
    C262    C    0.15640   0.46540   0.96570   1.000
    C263    C    0.09360   0.71540   0.21570   1.000
    C264    C    0.40640   0.78460   0.21570   1.000
    C265    C    0.34360   0.53460   0.46570   1.000
    C266    C    0.65640   0.46540   0.46570   1.000
    C267    C    0.59360   0.71540   0.71570   1.000
    C268    C    0.90640   0.78460   0.71570   1.000
    C269    C    0.11700   0.90390   0.74860   1.000
    C270    C    0.13300   0.15390   0.99860   1.000
    O271    O    0.18238   0.91970   0.95740   1.000
    O272    O    0.81762   0.08030   0.95740   1.000
    O273    O    0.43238   0.33030   0.20740   1.000
    O274    O    0.06762   0.16970   0.20740   1.000
    O275    O    0.68238   0.91970   0.45740   1.000
    O276    O    0.31762   0.08030   0.45740   1.000
    O277    O    0.93238   0.33030   0.70740   1.000
    O278    O    0.56762   0.16970   0.70740   1.000
    O279    O    0.07862   0.84940   0.59370   1.000
    O280    O    0.17138   0.09940   0.84370   1.000
    O281    O    0.32862   0.40060   0.84370   1.000
    O282    O    0.42138   0.15060   0.09370   1.000
    O283    O    0.57862   0.84940   0.09370   1.000
    O284    O    0.67138   0.09940   0.34370   1.000
    O285    O    0.82862   0.40060   0.34370   1.000
    O286    O    0.92138   0.65060   0.09370   1.000
    O287    O    0.07862   0.34940   0.09370   1.000
    O288    O    0.17138   0.59940   0.34370   1.000
    O289    O    0.32862   0.90060   0.34370   1.000
    O290    O    0.42138   0.65060   0.59370   1.000
    O291    O    0.57862   0.34940   0.59370   1.000
    O292    O    0.67138   0.59940   0.84370   1.000
    O293    O    0.82862   0.90060   0.84370   1.000
    O294    O    0.96768   0.63420   0.71000   1.000
    O295    O    0.28232   0.88420   0.96000   1.000
    O296    O    0.21768   0.61580   0.96000   1.000
    O297    O    0.53232   0.36580   0.21000   1.000
    O298    O    0.46768   0.63420   0.21000   1.000
    O299    O    0.78232   0.88420   0.46000   1.000
    O300    O    0.71768   0.61580   0.46000   1.000
    O301    O    0.03232   0.86580   0.21000   1.000
    O302    O    0.96768   0.13420   0.21000   1.000
    O303    O    0.28232   0.38420   0.46000   1.000
    O304    O    0.21768   0.11580   0.46000   1.000
    O305    O    0.53232   0.86580   0.71000   1.000
    O306    O    0.46768   0.13420   0.71000   1.000
    O307    O    0.78232   0.38420   0.96000   1.000
    O308    O    0.71768   0.11580   0.96000   1.000
    O309    O    0.03407   0.75890   0.70180   1.000
    O310    O    0.21593   0.00890   0.95180   1.000
    O311    O    0.28407   0.49110   0.95180   1.000
    O312    O    0.46593   0.24110   0.20180   1.000
    O313    O    0.53407   0.75890   0.20180   1.000
    O314    O    0.71593   0.00890   0.45180   1.000
    O315    O    0.78407   0.49110   0.45180   1.000
    O316    O    0.96593   0.74110   0.20180   1.000
    O317    O    0.03407   0.25890   0.20180   1.000
    O318    O    0.21593   0.50890   0.45180   1.000
    O319    O    0.28407   0.99110   0.45180   1.000
    O320    O    0.46593   0.74110   0.70180   1.000
    O321    O    0.53407   0.25890   0.70180   1.000
    O322    O    0.71593   0.50890   0.95180   1.000
    O323    O    0.78407   0.99110   0.95180   1.000
    H324    H    0.04830   0.76100   0.73140   1.000
    H325    H    0.20170   0.01100   0.98140   1.000
    H326    H    0.29830   0.48900   0.98140   1.000
    H327    H    0.45170   0.23900   0.23140   1.000
    H328    H    0.54830   0.76100   0.23140   1.000
    H329    H    0.70170   0.01100   0.48140   1.000
    H330    H    0.79830   0.48900   0.48140   1.000
    H331    H    0.95170   0.73900   0.23140   1.000
    H332    H    0.04830   0.26100   0.23140   1.000
    H333    H    0.20170   0.51100   0.48140   1.000
    H334    H    0.29830   0.98900   0.48140   1.000
    H335    H    0.45170   0.73900   0.73140   1.000
    H336    H    0.54830   0.26100   0.73140   1.000
    H337    H    0.70170   0.51100   0.98140   1.000
    H338    H    0.79830   0.98900   0.98140   1.000
    O339    O    0.99135   0.81870   0.49660   1.000
    O340    O    0.25865   0.06870   0.74660   1.000
    O341    O    0.24135   0.43130   0.74660   1.000
    O342    O    0.50865   0.18130   0.99660   1.000
    O343    O    0.49135   0.81870   0.99660   1.000
    O344    O    0.75865   0.06870   0.24660   1.000
    O345    O    0.74135   0.43130   0.24660   1.000
    O346    O    0.00865   0.68130   0.99660   1.000
    O347    O    0.99135   0.31870   0.99660   1.000
    O348    O    0.25865   0.56870   0.24660   1.000
    O349    O    0.24135   0.93130   0.24660   1.000
    O350    O    0.50865   0.68130   0.49660   1.000
    O351    O    0.49135   0.31870   0.49660   1.000
    O352    O    0.75865   0.56870   0.74660   1.000
    O353    O    0.74135   0.93130   0.74660   1.000
    H354    H    0.88430   0.38130   0.77100   1.000
    H355    H    0.61570   0.11870   0.77100   1.000
    N356    N    0.92820   0.57150   0.76420   1.000
    N357    N    0.32180   0.82150   0.01420   1.000
    N358    N    0.17820   0.67850   0.01420   1.000
    N359    N    0.57180   0.42850   0.26420   1.000
    N360    N    0.42820   0.57150   0.26420   1.000
    N361    N    0.82180   0.82150   0.51420   1.000
    N362    N    0.67820   0.67850   0.51420   1.000
    N363    N    0.07180   0.92850   0.26420   1.000
    N364    N    0.92820   0.07150   0.26420   1.000
    N365    N    0.32180   0.32150   0.51420   1.000
    N366    N    0.17820   0.17850   0.51420   1.000
    N367    N    0.57180   0.92850   0.76420   1.000
    O368    O    0.06680   0.67280   0.04280   1.000
    O369    O    0.68320   0.42280   0.29280   1.000
    O370    O    0.31680   0.57720   0.29280   1.000
    O371    O    0.93320   0.82720   0.54280   1.000
    O372    O    0.56680   0.67280   0.54280   1.000
    O373    O    0.18320   0.92280   0.29280   1.000
    O374    O    0.81680   0.07720   0.29280   1.000
    O375    O    0.43320   0.32720   0.54280   1.000
    O376    O    0.06680   0.17280   0.54280   1.000
    O377    O    0.68320   0.92280   0.79280   1.000
    O378    O    0.31680   0.07720   0.79280   1.000
    O379    O    0.93320   0.32720   0.04280   1.000
    O380    O    0.56680   0.17280   0.04280   1.000
    O381    O    0.00830   0.72730   0.27480   1.000
    O382    O    0.24170   0.97730   0.52480   1.000
    O383    O    0.25830   0.52270   0.52480   1.000
    O384    O    0.49170   0.27270   0.77480   1.000
    O385    O    0.50830   0.72730   0.77480   1.000
    O386    O    0.74170   0.97730   0.02480   1.000
    O387    O    0.75830   0.52270   0.02480   1.000
    O388    O    0.99170   0.77270   0.77480   1.000
    O389    O    0.00830   0.22730   0.77480   1.000
    O390    O    0.24170   0.47730   0.02480   1.000
    O391    O    0.25830   0.02270   0.02480   1.000
    O392    O    0.49170   0.77270   0.27480   1.000
    O393    O    0.50830   0.22730   0.27480   1.000
    O394    O    0.74170   0.47730   0.52480   1.000
    O395    O    0.75830   0.02270   0.52480   1.000
    O396    O    0.07756   0.83690   0.68750   1.000
    O397    O    0.17244   0.08690   0.93750   1.000
    O398    O    0.32756   0.41310   0.93750   1.000
    O399    O    0.42244   0.16310   0.18750   1.000
    O400    O    0.57756   0.83690   0.18750   1.000
    O401    O    0.67244   0.08690   0.43750   1.000
    O402    O    0.82756   0.41310   0.43750   1.000
    O403    O    0.92244   0.66310   0.18750   1.000
    O404    O    0.07756   0.33690   0.18750   1.000
    O405    O    0.17244   0.58690   0.43750   1.000
    O406    O    0.32756   0.91310   0.43750   1.000
    O407    O    0.42244   0.66310   0.68750   1.000
    O408    O    0.57756   0.33690   0.68750   1.000
    O409    O    0.67244   0.58690   0.93750   1.000
    O410    O    0.82756   0.91310   0.93750   1.000
    O411    O    0.92250   0.67410   0.57010   1.000
    O412    O    0.32750   0.92410   0.82010   1.000
    O413    O    0.17250   0.57590   0.82010   1.000
    O414    O    0.57750   0.32590   0.07010   1.000
    O415    O    0.42250   0.67410   0.07010   1.000
    O416    O    0.82750   0.92410   0.32010   1.000
    O417    O    0.67250   0.57590   0.32010   1.000
    O418    O    0.07750   0.82590   0.07010   1.000
    O419    O    0.92250   0.17410   0.07010   1.000
    O420    O    0.32750   0.42410   0.32010   1.000
    O421    O    0.17250   0.07590   0.32010   1.000
    O422    O    0.57750   0.82590   0.57010   1.000
    O423    O    0.42250   0.17410   0.57010   1.000
    O424    O    0.82750   0.42410   0.82010   1.000
    O425    O    0.67250   0.07590   0.82010   1.000
    O426    O    0.03056   0.85600   0.73090   1.000
    O427    O    0.21944   0.10600   0.98090   1.000
    O428    O    0.28056   0.39400   0.98090   1.000
    O429    O    0.46944   0.14400   0.23090   1.000
    O430    O    0.53056   0.85600   0.23090   1.000
    O431    O    0.71944   0.10600   0.48090   1.000
    O432    O    0.78056   0.39400   0.48090   1.000
    O433    O    0.96944   0.64400   0.23090   1.000
    O434    O    0.03056   0.35600   0.23090   1.000
    O435    O    0.21944   0.60600   0.48090   1.000
    O436    O    0.28056   0.89400   0.48090   1.000
    O437    O    0.46944   0.64400   0.73090   1.000
    O438    O    0.53056   0.35600   0.73090   1.000
    O439    O    0.71944   0.60600   0.98090   1.000
    O440    O    0.78056   0.89400   0.98090   1.000
    C441    C    0.93670   0.63550   0.70090   1.000
    C442    C    0.31330   0.88550   0.95090   1.000
    C443    C    0.18670   0.61450   0.95090   1.000
    C444    C    0.56330   0.36450   0.20090   1.000
    C445    C    0.43670   0.63550   0.20090   1.000
    C446    C    0.81330   0.88550   0.45090   1.000
    C447    C    0.68670   0.61450   0.45090   1.000
    C448    C    0.06330   0.86450   0.20090   1.000
    C449    C    0.93670   0.13550   0.20090   1.000
    C450    C    0.31330   0.38550   0.45090   1.000
    C451    C    0.18670   0.11450   0.45090   1.000
    C452    C    0.56330   0.86450   0.70090   1.000
    C453    C    0.43670   0.13550   0.70090   1.000
    C454    C    0.81330   0.38550   0.95090   1.000
    C455    C    0.68670   0.11450   0.95090   1.000
    O456    O    0.00760   0.73320   0.48470   1.000
    O457    O    0.24240   0.98320   0.73470   1.000
    O458    O    0.25760   0.51680   0.73470   1.000
    O459    O    0.49240   0.26680   0.98470   1.000
    O460    O    0.50760   0.73320   0.98470   1.000
    O461    O    0.74240   0.98320   0.23470   1.000
    O462    O    0.75760   0.51680   0.23470   1.000
    O463    O    0.99240   0.76680   0.98470   1.000
    O464    O    0.00760   0.23320   0.98470   1.000
    O465    O    0.24240   0.48320   0.23470   1.000
    O466    O    0.25760   0.01680   0.23470   1.000
    O467    O    0.49240   0.76680   0.48470   1.000
    O468    O    0.50760   0.23320   0.48470   1.000
    O469    O    0.74240   0.48320   0.73470   1.000
    O470    O    0.75760   0.01680   0.73470   1.000
    C471    C    0.87620   0.57840   0.46680   1.000
    C472    C    0.37380   0.82840   0.71680   1.000
    C473    C    0.12620   0.67160   0.71680   1.000
    C474    C    0.62380   0.42160   0.96680   1.000
    C475    C    0.37620   0.57840   0.96680   1.000
    C476    C    0.87380   0.82840   0.21680   1.000
    C477    C    0.62620   0.67160   0.21680   1.000
    C478    C    0.12380   0.92160   0.96680   1.000
    C479    C    0.87620   0.07840   0.96680   1.000
    C480    C    0.37380   0.32840   0.21680   1.000
    C481    C    0.12620   0.17160   0.21680   1.000
    C482    C    0.62380   0.92160   0.46680   1.000
    C483    C    0.37620   0.07840   0.46680   1.000
    C484    C    0.87380   0.32840   0.71680   1.000
    C485    C    0.62620   0.17160   0.71680   1.000
    C486    C    0.84390   0.55410   0.80290   1.000
    C487    C    0.40610   0.80410   0.05290   1.000
    C488    C    0.09390   0.69590   0.05290   1.000
    C489    C    0.65610   0.44590   0.30290   1.000
    C490    C    0.34390   0.55410   0.30290   1.000
    C491    C    0.90610   0.80410   0.55290   1.000
    C492    C    0.59390   0.69590   0.55290   1.000
    C493    C    0.15610   0.94590   0.30290   1.000
    C494    C    0.84390   0.05410   0.30290   1.000
    C495    C    0.40610   0.30410   0.55290   1.000
    C496    C    0.09390   0.19590   0.55290   1.000
    C497    C    0.65610   0.94590   0.80290   1.000
    C498    C    0.34390   0.05410   0.80290   1.000
    C499    C    0.90610   0.30410   0.05290   1.000
    C500    C    0.59390   0.19590   0.05290   1.000
    C501    C    0.91460   0.60450   0.73350   1.000
    C502    C    0.33540   0.85450   0.98350   1.000
    C503    C    0.16460   0.64550   0.98350   1.000
    C504    C    0.58540   0.39550   0.23350   1.000
    C505    C    0.41460   0.60450   0.23350   1.000
    C506    C    0.83540   0.85450   0.48350   1.000
    C507    C    0.66460   0.64550   0.48350   1.000
    C508    C    0.08540   0.89550   0.23350   1.000
    C509    C    0.91460   0.10450   0.23350   1.000
    C510    C    0.33540   0.35450   0.48350   1.000
    C511    C    0.16460   0.14550   0.48350   1.000
    C512    C    0.58540   0.89550   0.73350   1.000
    C513    C    0.41460   0.10450   0.73350   1.000
    C514    C    0.83540   0.35450   0.98350   1.000
    C515    C    0.66460   0.14550   0.98350   1.000
    C516    C    0.08220   0.89520   0.75050   1.000
    C517    C    0.16780   0.14520   0.00050   1.000
    C518    C    0.33220   0.35480   0.00050   1.000
    C519    C    0.41780   0.10480   0.25050   1.000
    C520    C    0.58220   0.89520   0.25050   1.000
    C521    C    0.66780   0.14520   0.50050   1.000
    C522    C    0.83220   0.35480   0.50050   1.000
    C523    C    0.91780   0.60480   0.25050   1.000
    C524    C    0.08220   0.39520   0.25050   1.000
    C525    C    0.16780   0.64520   0.50050   1.000
    C526    C    0.33220   0.85480   0.50050   1.000
    C527    C    0.41780   0.60480   0.75050   1.000
    C528    C    0.58220   0.39520   0.75050   1.000
    C529    C    0.66780   0.64520   0.00050   1.000
    C530    C    0.83220   0.85480   0.00050   1.000
    O531    O    0.96898   0.66010   0.52340   1.000
    O532    O    0.28102   0.91010   0.77340   1.000
    O533    O    0.21898   0.58990   0.77340   1.000
    O534    O    0.53102   0.33990   0.02340   1.000
    O535    O    0.46898   0.66010   0.02340   1.000
    O536    O    0.78102   0.91010   0.27340   1.000
    O537    O    0.71898   0.58990   0.27340   1.000
    O538    O    0.03102   0.83990   0.02340   1.000
    O539    O    0.96898   0.16010   0.02340   1.000
    O540    O    0.28102   0.41010   0.27340   1.000
    O541    O    0.21898   0.08990   0.27340   1.000
    O542    O    0.53102   0.83990   0.52340   1.000
    O543    O    0.46898   0.16010   0.52340   1.000
    O544    O    0.78102   0.41010   0.77340   1.000
    O545    O    0.71898   0.08990   0.77340   1.000
    C546    C    0.15470   0.96400   0.80120   1.000
    C547    C    0.09530   0.21400   0.05120   1.000
    C548    C    0.40470   0.28600   0.05120   1.000
    C549    C    0.34530   0.03600   0.30120   1.000
    C550    C    0.65470   0.96400   0.30120   1.000
    C551    C    0.59530   0.21400   0.55120   1.000
    C552    C    0.90470   0.28600   0.55120   1.000
    C553    C    0.84530   0.53600   0.30120   1.000
    C554    C    0.15470   0.46400   0.30120   1.000
    C555    C    0.09530   0.71400   0.55120   1.000
    C556    C    0.40470   0.78600   0.55120   1.000
    C557    C    0.34530   0.53600   0.80120   1.000
    C558    C    0.65470   0.46400   0.80120   1.000
    C559    C    0.59530   0.71400   0.05120   1.000
    C560    C    0.90470   0.78600   0.05120   1.000
    C561    C    0.06310   0.87880   0.56510   1.000
    C562    C    0.18690   0.12880   0.81510   1.000
    C563    C    0.31310   0.37120   0.81510   1.000
    C564    C    0.43690   0.12120   0.06510   1.000
    C565    C    0.56310   0.87880   0.06510   1.000
    C566    C    0.68690   0.12880   0.31510   1.000
    C567    C    0.81310   0.37120   0.31510   1.000
    C568    C    0.93690   0.62120   0.06510   1.000
    C569    C    0.06310   0.37880   0.06510   1.000
    C570    C    0.18690   0.62880   0.31510   1.000
    C571    C    0.31310   0.87120   0.31510   1.000
    C572    C    0.43690   0.62120   0.56510   1.000
    C573    C    0.56310   0.37880   0.56510   1.000
    C574    C    0.68690   0.62880   0.81510   1.000
    C575    C    0.81310   0.87120   0.81510   1.000
    C576    C    0.06170   0.85920   0.72040   1.000
    C577    C    0.18830   0.10920   0.97040   1.000
    C578    C    0.31170   0.39080   0.97040   1.000
    C579    C    0.43830   0.14080   0.22040   1.000
    C580    C    0.56170   0.85920   0.22040   1.000
    C581    C    0.68830   0.10920   0.47040   1.000
    C582    C    0.81170   0.39080   0.47040   1.000
    C583    C    0.93830   0.64080   0.22040   1.000
    C584    C    0.06170   0.35920   0.22040   1.000
    C585    C    0.18830   0.60920   0.47040   1.000
    C586    C    0.31170   0.89080   0.47040   1.000
    C587    C    0.43830   0.64080   0.72040   1.000
    C588    C    0.56170   0.35920   0.72040   1.000
    C589    C    0.68830   0.60920   0.97040   1.000
    C590    C    0.81170   0.89080   0.97040   1.000
    C591    C    0.84470   0.55540   0.44850   1.000
    C592    C    0.40530   0.80540   0.69850   1.000
    C593    C    0.09470   0.69460   0.69850   1.000
    C594    C    0.65530   0.44460   0.94850   1.000
    C595    C    0.34470   0.55540   0.94850   1.000
    C596    C    0.90530   0.80540   0.19850   1.000
    C597    C    0.59470   0.69460   0.19850   1.000
    C598    C    0.15530   0.94460   0.94850   1.000
    C599    C    0.84470   0.05540   0.94850   1.000
    C600    C    0.40530   0.30540   0.19850   1.000
    C601    C    0.09470   0.19460   0.19850   1.000
    C602    C    0.65530   0.94460   0.44850   1.000
    C603    C    0.34470   0.05540   0.44850   1.000
    C604    C    0.90530   0.30540   0.69850   1.000
    C605    C    0.59470   0.19460   0.69850   1.000
    C606    C    0.15640   0.96540   0.46570   1.000
    C607    C    0.09360   0.21540   0.71570   1.000
    C608    C    0.40640   0.28460   0.71570   1.000
    C609    C    0.34360   0.03460   0.96570   1.000
    C610    C    0.65640   0.96540   0.96570   1.000
    C611    C    0.59360   0.21540   0.21570   1.000
    C612    C    0.90640   0.28460   0.21570   1.000
    C613    C    0.36700   0.34610   0.99860   1.000
    C614    C    0.38300   0.09610   0.24860   1.000
    C615    C    0.61700   0.90390   0.24860   1.000
    C616    C    0.63300   0.15390   0.49860   1.000
    C617    C    0.86700   0.34610   0.49860   1.000
    C618    C    0.88300   0.59610   0.24860   1.000
    C619    C    0.11700   0.40390   0.24860   1.000
    C620    C    0.13300   0.65390   0.49860   1.000
    C621    C    0.36700   0.84610   0.49860   1.000
    C622    C    0.38300   0.59610   0.74860   1.000
    C623    C    0.61700   0.40390   0.74860   1.000
    C624    C    0.63300   0.65390   0.99860   1.000
    C625    C    0.86700   0.84610   0.99860   1.000
    H626    H    0.13330   0.88840   0.72790   1.000
    H627    H    0.11670   0.13840   0.97790   1.000
    H628    H    0.38330   0.36160   0.97790   1.000
    H629    H    0.36670   0.11160   0.22790   1.000
    H630    H    0.63330   0.88840   0.22790   1.000
    H631    H    0.61670   0.13840   0.47790   1.000
    H632    H    0.88330   0.36160   0.47790   1.000
    H633    H    0.86670   0.61160   0.22790   1.000
    H634    H    0.13330   0.38840   0.22790   1.000
    H635    H    0.11670   0.63840   0.47790   1.000
    H636    H    0.38330   0.86160   0.47790   1.000
    H637    H    0.36670   0.61160   0.72790   1.000
    H638    H    0.63330   0.38840   0.72790   1.000
    H639    H    0.61670   0.63840   0.97790   1.000
    H640    H    0.88330   0.86160   0.97790   1.000
    C641    C    0.99810   0.78640   0.41900   1.000
    C642    C    0.25190   0.03640   0.66900   1.000
    C643    C    0.24810   0.46360   0.66900   1.000
    C644    C    0.50190   0.21360   0.91900   1.000
    C645    C    0.49810   0.78640   0.91900   1.000
    C646    C    0.75190   0.03640   0.16900   1.000
    C647    C    0.74810   0.46360   0.16900   1.000
    C648    C    0.00190   0.71360   0.91900   1.000
    C649    C    0.99810   0.28640   0.91900   1.000
    C650    C    0.25190   0.53640   0.16900   1.000
    C651    C    0.24810   0.96360   0.16900   1.000
    C652    C    0.50190   0.71360   0.41900   1.000
    C653    C    0.49810   0.28640   0.41900   1.000
    C654    C    0.75190   0.53640   0.66900   1.000
    C655    C    0.74810   0.96360   0.66900   1.000
    N656    N    0.09414   0.96810   0.47350   1.000
    N657    N    0.15586   0.21810   0.72350   1.000
    N658    N    0.34414   0.28190   0.72350   1.000
    N659    N    0.40586   0.03190   0.97350   1.000
    N660    N    0.59414   0.96810   0.97350   1.000
    N661    N    0.65586   0.21810   0.22350   1.000
    N662    N    0.84414   0.28190   0.22350   1.000
    N663    N    0.90586   0.53190   0.97350   1.000
    N664    N    0.09414   0.46810   0.97350   1.000
    N665    N    0.15586   0.71810   0.22350   1.000
    N666    N    0.34414   0.78190   0.22350   1.000
    N667    N    0.40586   0.53190   0.47350   1.000
    N668    N    0.59414   0.46810   0.47350   1.000
    N669    N    0.65586   0.71810   0.72350   1.000
    N670    N    0.84414   0.78190   0.72350   1.000
    N671    N    0.06841   0.94440   0.50170   1.000
    N672    N    0.18159   0.19440   0.75170   1.000
    N673    N    0.31841   0.30560   0.75170   1.000
    N674    N    0.43159   0.05560   0.00170   1.000
    N675    N    0.56841   0.94440   0.00170   1.000
    N676    N    0.68159   0.19440   0.25170   1.000
    N677    N    0.81841   0.30560   0.25170   1.000
    N678    N    0.93159   0.55560   0.00170   1.000
    N679    N    0.06841   0.44440   0.00170   1.000
    N680    N    0.18159   0.69440   0.25170   1.000
    N681    N    0.31841   0.80560   0.25170   1.000
    N682    N    0.43159   0.55560   0.50170   1.000
    N683    N    0.56841   0.44440   0.50170   1.000
    N684    N    0.68159   0.69440   0.75170   1.000
    N685    N    0.81841   0.80560   0.75170   1.000
    C686    C    0.08464   0.91170   0.53550   1.000
    C687    C    0.16536   0.16170   0.78550   1.000
    C688    C    0.33464   0.33830   0.78550   1.000
    C689    C    0.41536   0.08830   0.03550   1.000
    C690    C    0.58464   0.91170   0.03550   1.000
    C691    C    0.66536   0.16170   0.28550   1.000
    C692    C    0.83464   0.33830   0.28550   1.000
    C693    C    0.91536   0.58830   0.03550   1.000
    C694    C    0.08464   0.41170   0.03550   1.000
    C695    C    0.16536   0.66170   0.28550   1.000
    C696    C    0.33464   0.83830   0.28550   1.000
    C697    C    0.41536   0.58830   0.53550   1.000
    C698    C    0.58464   0.41170   0.53550   1.000
    C699    C    0.66536   0.66170   0.78550   1.000
    C700    C    0.83464   0.83830   0.78550   1.000
    C701    C    0.12039   0.91520   0.52810   1.000
    C702    C    0.12961   0.16520   0.77810   1.000
    C703    C    0.37039   0.33480   0.77810   1.000
    C704    C    0.37961   0.08480   0.02810   1.000
    C705    C    0.62039   0.91520   0.02810   1.000
    C706    C    0.62961   0.16520   0.27810   1.000
    C707    C    0.87039   0.33480   0.27810   1.000
    C708    C    0.87961   0.58480   0.02810   1.000
    C709    C    0.12039   0.41520   0.02810   1.000
    C710    C    0.12961   0.66520   0.27810   1.000
    C711    C    0.37039   0.83480   0.27810   1.000
    C712    C    0.37961   0.58480   0.52810   1.000
    C713    C    0.62039   0.41520   0.52810   1.000
    C714    C    0.62961   0.66520   0.77810   1.000
    C715    C    0.87039   0.83480   0.77810   1.000
    H716    H    0.13740   0.89730   0.54580   1.000
    H717    H    0.11260   0.14730   0.79580   1.000
    H718    H    0.38740   0.35270   0.79580   1.000
    H719    H    0.36260   0.10270   0.04580   1.000
    H720    H    0.63740   0.89730   0.04580   1.000
    H721    H    0.61260   0.14730   0.29580   1.000
    H722    H    0.88740   0.35270   0.29580   1.000
    H723    H    0.86260   0.60270   0.04580   1.000
    H724    H    0.13740   0.39730   0.04580   1.000
    H725    H    0.11260   0.64730   0.29580   1.000
    H726    H    0.38740   0.85270   0.29580   1.000
    H727    H    0.36260   0.60270   0.54580   1.000
    H728    H    0.63740   0.39730   0.54580   1.000
    H729    H    0.61260   0.64730   0.79580   1.000
    H730    H    0.88740   0.85270   0.79580   1.000
    C731    C    0.12626   0.95000   0.48980   1.000
    C732    C    0.12374   0.20000   0.73980   1.000
    C733    C    0.37626   0.30000   0.73980   1.000
    C734    C    0.37374   0.05000   0.98980   1.000
    C735    C    0.62626   0.95000   0.98980   1.000
    C736    C    0.62374   0.20000   0.23980   1.000
    C737    C    0.87626   0.30000   0.23980   1.000
    C738    C    0.87374   0.55000   0.98980   1.000
    C739    C    0.12626   0.45000   0.98980   1.000
    C740    C    0.12374   0.70000   0.23980   1.000
    C741    C    0.37626   0.80000   0.23980   1.000
    C742    C    0.37374   0.55000   0.48980   1.000
    C743    C    0.62626   0.45000   0.48980   1.000
    C744    C    0.62374   0.70000   0.73980   1.000
    C745    C    0.87626   0.80000   0.73980   1.000
    N746    N    0.09280   0.95190   0.80460   1.000
    N747    N    0.15720   0.20190   0.05460   1.000
    N748    N    0.34280   0.29810   0.05460   1.000
    N749    N    0.40720   0.04810   0.30460   1.000
    N750    N    0.59280   0.95190   0.30460   1.000
    N751    N    0.65720   0.20190   0.55460   1.000
    N752    N    0.84280   0.29810   0.55460   1.000
    N753    N    0.90720   0.54810   0.30460   1.000
    N754    N    0.09280   0.45190   0.30460   1.000
    N755    N    0.15720   0.70190   0.55460   1.000
    N756    N    0.34280   0.79810   0.55460   1.000
    N757    N    0.40720   0.54810   0.80460   1.000
    N758    N    0.59280   0.45190   0.80460   1.000
    N759    N    0.65720   0.70190   0.05460   1.000
    N760    N    0.84280   0.79810   0.05460   1.000
    C761    C    0.99880   0.77880   0.47170   1.000
    C762    C    0.25120   0.02880   0.72170   1.000
    C763    C    0.24880   0.47120   0.72170   1.000
    C764    C    0.50120   0.22120   0.97170   1.000
    C765    C    0.49880   0.77880   0.97170   1.000
    C766    C    0.75120   0.02880   0.22170   1.000
    C767    C    0.74880   0.47120   0.22170   1.000
    C768    C    0.00120   0.72120   0.97170   1.000
    C769    C    0.99880   0.27880   0.97170   1.000
    C770    C    0.25120   0.52880   0.22170   1.000
    C771    C    0.24880   0.97120   0.22170   1.000
    C772    C    0.50120   0.72120   0.47170   1.000
    C773    C    0.49880   0.27880   0.47170   1.000
    C774    C    0.75120   0.52880   0.72170   1.000
    C775    C    0.74880   0.97120   0.72170   1.000
    C776    C    0.87610   0.56950   0.77770   1.000
    C777    C    0.37390   0.81950   0.02770   1.000
    C778    C    0.12610   0.68050   0.02770   1.000
    C779    C    0.62390   0.43050   0.27770   1.000
    C780    C    0.37610   0.56950   0.27770   1.000
    C781    C    0.87390   0.81950   0.52770   1.000
    C782    C    0.62610   0.68050   0.52770   1.000
    C783    C    0.12390   0.93050   0.27770   1.000
    C784    C    0.87610   0.06950   0.27770   1.000
    C785    C    0.37390   0.31950   0.52770   1.000
    C786    C    0.12610   0.18050   0.52770   1.000
    C787    C    0.62390   0.93050   0.77770   1.000
    C788    C    0.37610   0.06950   0.77770   1.000
    C789    C    0.87390   0.31950   0.02770   1.000
    C790    C    0.62610   0.18050   0.02770   1.000
    N791    N    0.90510   0.54930   0.79150   1.000
    N792    N    0.34490   0.79930   0.04150   1.000
    N793    N    0.15510   0.70070   0.04150   1.000
    N794    N    0.59490   0.45070   0.29150   1.000
    N795    N    0.40510   0.54930   0.29150   1.000
    N796    N    0.84490   0.79930   0.54150   1.000
    N797    N    0.65510   0.70070   0.54150   1.000
    N798    N    0.09490   0.95070   0.29150   1.000
    N799    N    0.90510   0.04930   0.29150   1.000
    N800    N    0.34490   0.29930   0.54150   1.000
    N801    N    0.15510   0.20070   0.54150   1.000
    N802    N    0.59490   0.95070   0.79150   1.000
    N803    N    0.40510   0.04930   0.79150   1.000
    N804    N    0.84490   0.29930   0.04150   1.000
    N805    N    0.65510   0.20070   0.04150   1.000
    C806    C    0.88220   0.61430   0.50180   1.000
    C807    C    0.36780   0.86430   0.75180   1.000
    C808    C    0.13220   0.63570   0.75180   1.000
    C809    C    0.61780   0.38570   0.00180   1.000
    C810    C    0.38220   0.61430   0.00180   1.000
    C811    C    0.86780   0.86430   0.25180   1.000
    C812    C    0.63220   0.63570   0.25180   1.000
    C813    C    0.11780   0.88570   0.00180   1.000
    C814    C    0.88220   0.11430   0.00180   1.000
    C815    C    0.36780   0.36430   0.25180   1.000
    C816    C    0.13220   0.13570   0.25180   1.000
    C817    C    0.61780   0.88570   0.50180   1.000
    C818    C    0.38220   0.11430   0.50180   1.000
    C819    C    0.86780   0.36430   0.75180   1.000
    C820    C    0.63220   0.13570   0.75180   1.000
    H821    H    0.86570   0.63130   0.52100   1.000
    H822    H    0.38430   0.88130   0.77100   1.000
    H823    H    0.11570   0.61870   0.77100   1.000
    H824    H    0.63430   0.36870   0.02100   1.000
    H825    H    0.36570   0.63130   0.02100   1.000
    H826    H    0.88430   0.88130   0.27100   1.000
    H827    H    0.61570   0.61870   0.27100   1.000
    H828    H    0.13430   0.86870   0.02100   1.000
    H829    H    0.86570   0.13130   0.02100   1.000
    H830    H    0.38430   0.38130   0.27100   1.000
    H831    H    0.11570   0.11870   0.27100   1.000
    H832    H    0.63430   0.86870   0.52100   1.000
    H833    H    0.36570   0.13130   0.52100   1.000
    N834    N    0.42820   0.07150   0.76420   1.000
    N835    N    0.82180   0.32150   0.01420   1.000
    N836    N    0.67820   0.17850   0.01420   1.000
    N837    N    0.90750   0.56300   0.44950   1.000
    N838    N    0.34250   0.81300   0.69950   1.000
    N839    N    0.15750   0.68700   0.69950   1.000
    N840    N    0.59250   0.43700   0.94950   1.000
    N841    N    0.40750   0.56300   0.94950   1.000
    N842    N    0.84250   0.81300   0.19950   1.000
    N843    N    0.65750   0.68700   0.19950   1.000
    N844    N    0.09250   0.93700   0.94950   1.000
    N845    N    0.90750   0.06300   0.94950   1.000
    N846    N    0.34250   0.31300   0.19950   1.000
    N847    N    0.15750   0.18700   0.19950   1.000
    N848    N    0.59250   0.93700   0.44950   1.000
    N849    N    0.40750   0.06300   0.44950   1.000
    N850    N    0.84250   0.31300   0.69950   1.000
    N851    N    0.65750   0.18700   0.69950   1.000
    O852    O    0.27508   0.99990   0.82660   1.000
    O853    O    0.97460   0.73520   0.68120   1.000
    O854    O    0.27540   0.98520   0.93120   1.000
    O855    O    0.22460   0.51480   0.93120   1.000
    O856    O    0.52540   0.26480   0.18120   1.000
    O857    O    0.47460   0.73520   0.18120   1.000
    O858    O    0.77540   0.98520   0.43120   1.000
    O859    O    0.72460   0.51480   0.43120   1.000
    O860    O    0.02540   0.76480   0.18120   1.000
    O861    O    0.97460   0.23520   0.18120   1.000
    O862    O    0.27540   0.48520   0.43120   1.000
    O863    O    0.22460   0.01480   0.43120   1.000
    O864    O    0.52540   0.76480   0.68120   1.000
    O865    O    0.47460   0.23520   0.68120   1.000
    O866    O    0.77540   0.48520   0.93120   1.000
    O867    O    0.72460   0.01480   0.93120   1.000
    O868    O    0.97492   0.74990   0.57660   1.000
    O869    O    0.22492   0.50010   0.82660   1.000
    O870    O    0.52508   0.25010   0.07660   1.000
    O871    O    0.47492   0.74990   0.07660   1.000
    O872    O    0.77508   0.99990   0.32660   1.000
    O873    O    0.72492   0.50010   0.32660   1.000
    O874    O    0.02508   0.75010   0.07660   1.000
    O875    O    0.97492   0.24990   0.07660   1.000
    O876    O    0.27508   0.49990   0.32660   1.000
    O877    O    0.22492   0.00010   0.32660   1.000
    O878    O    0.52508   0.75010   0.57660   1.000
    O879    O    0.47492   0.24990   0.57660   1.000
    O880    O    0.77508   0.49990   0.82660   1.000
    O881    O    0.72492   0.00010   0.82660   1.000
    O882    O    0.95263   0.81450   0.63710   1.000
    O883    O    0.29737   0.06450   0.88710   1.000
    O884    O    0.20263   0.43550   0.88710   1.000
    O885    O    0.54737   0.18550   0.13710   1.000
    O886    O    0.45263   0.81450   0.13710   1.000
    O887    O    0.79737   0.06450   0.38710   1.000
    O888    O    0.70263   0.43550   0.38710   1.000
    O889    O    0.04737   0.68550   0.13710   1.000
    O890    O    0.95263   0.31450   0.13710   1.000
    O891    O    0.29737   0.56450   0.38710   1.000
    O892    O    0.20263   0.93550   0.38710   1.000
    O893    O    0.54737   0.68550   0.63710   1.000
    O894    O    0.45263   0.31450   0.63710   1.000
    O895    O    0.79737   0.56450   0.88710   1.000
    O896    O    0.70263   0.93550   0.88710   1.000
    H897    H    0.93270   0.83830   0.64000   1.000
    H898    H    0.31730   0.08830   0.89000   1.000
    H899    H    0.18270   0.41170   0.89000   1.000
    H900    H    0.56730   0.16170   0.14000   1.000
    H901    H    0.43270   0.83830   0.14000   1.000
    H902    H    0.81730   0.08830   0.39000   1.000
    H903    H    0.68270   0.41170   0.39000   1.000
    H904    H    0.06730   0.66170   0.14000   1.000
    H905    H    0.93270   0.33830   0.14000   1.000
    H906    H    0.31730   0.58830   0.39000   1.000
    H907    H    0.18270   0.91170   0.39000   1.000
    H908    H    0.56730   0.66170   0.64000   1.000
    H909    H    0.43270   0.33830   0.64000   1.000
    H910    H    0.81730   0.58830   0.89000   1.000
    H911    H    0.68270   0.91170   0.89000   1.000
    O912    O    0.03427   0.77930   0.56150   1.000
    O913    O    0.21573   0.02930   0.81150   1.000
    O914    O    0.28427   0.47070   0.81150   1.000
    O915    O    0.46573   0.22070   0.06150   1.000
    O916    O    0.53427   0.77930   0.06150   1.000
    O917    O    0.71573   0.02930   0.31150   1.000
    O918    O    0.78427   0.47070   0.31150   1.000
    O919    O    0.96573   0.72070   0.06150   1.000
    O920    O    0.03427   0.27930   0.06150   1.000
    O921    O    0.21573   0.52930   0.31150   1.000
    O922    O    0.28427   0.97070   0.31150   1.000
    O923    O    0.46573   0.72070   0.56150   1.000
    O924    O    0.53427   0.27930   0.56150   1.000
    O925    O    0.71573   0.52930   0.81150   1.000
    O926    O    0.78427   0.97070   0.81150   1.000
    H927    H    0.04860   0.78970   0.53340   1.000
    H928    H    0.20140   0.03970   0.78340   1.000
    H929    H    0.29860   0.46030   0.78340   1.000
    H930    H    0.45140   0.21030   0.03340   1.000
    H931    H    0.54860   0.78970   0.03340   1.000
    H932    H    0.70140   0.03970   0.28340   1.000
    H933    H    0.79860   0.46030   0.28340   1.000
    H934    H    0.95140   0.71030   0.03340   1.000
    H935    H    0.04860   0.28970   0.03340   1.000
    H936    H    0.20140   0.53970   0.28340   1.000
    H937    H    0.29860   0.96030   0.28340   1.000
    H938    H    0.45140   0.71030   0.53340   1.000
    H939    H    0.54860   0.28970   0.53340   1.000
    H940    H    0.70140   0.53970   0.78340   1.000
    H941    H    0.79860   0.96030   0.78340   1.000
    C942    C    0.93800   0.65450   0.53430   1.000
    C943    C    0.31200   0.90450   0.78430   1.000
    C944    C    0.18800   0.59550   0.78430   1.000
    C945    C    0.56200   0.34550   0.03430   1.000
    C946    C    0.43800   0.65450   0.03430   1.000
    C947    C    0.81200   0.90450   0.28430   1.000
    C948    C    0.68800   0.59550   0.28430   1.000
    C949    C    0.06200   0.84550   0.03430   1.000
    C950    C    0.93800   0.15450   0.03430   1.000
    C951    C    0.31200   0.40450   0.28430   1.000
    C952    C    0.18800   0.09550   0.28430   1.000
    C953    C    0.56200   0.84550   0.53430   1.000
    C954    C    0.43800   0.15450   0.53430   1.000
    C955    C    0.81200   0.40450   0.78430   1.000
    C956    C    0.68800   0.09550   0.78430   1.000
    O957    O    0.03156   0.88120   0.55800   1.000
    O958    O    0.21844   0.13120   0.80800   1.000
    O959    O    0.28156   0.36880   0.80800   1.000
    O960    O    0.46844   0.11880   0.05800   1.000
    O961    O    0.53156   0.88120   0.05800   1.000
    O962    O    0.71844   0.13120   0.30800   1.000
    O963    O    0.78156   0.36880   0.30800   1.000
    O964    O    0.96844   0.61880   0.05800   1.000
    O965    O    0.03156   0.38120   0.05800   1.000
    O966    O    0.21844   0.63120   0.30800   1.000
    O967    O    0.28156   0.86880   0.30800   1.000
    O968    O    0.46844   0.61880   0.55800   1.000
    O969    O    0.53156   0.38120   0.55800   1.000
    O970    O    0.71844   0.63120   0.80800   1.000
    O971    O    0.78156   0.86880   0.80800   1.000
    N972    N    0.93260   0.58870   0.47150   1.000
    N973    N    0.31740   0.83870   0.72150   1.000
    N974    N    0.18260   0.66130   0.72150   1.000
    N975    N    0.56740   0.41130   0.97150   1.000
    N976    N    0.43260   0.58870   0.97150   1.000
    N977    N    0.81740   0.83870   0.22150   1.000
    N978    N    0.68260   0.66130   0.22150   1.000
    N979    N    0.06740   0.91130   0.97150   1.000
    N980    N    0.93260   0.08870   0.97150   1.000
    N981    N    0.31740   0.33870   0.22150   1.000
    N982    N    0.18260   0.16130   0.22150   1.000
    N983    N    0.56740   0.91130   0.47150   1.000
    N984    N    0.43260   0.08870   0.47150   1.000
    N985    N    0.81740   0.33870   0.72150   1.000
    N986    N    0.68260   0.16130   0.72150   1.000
    C987    C    0.00390   0.75370   0.38030   1.000
    C988    C    0.24610   0.00370   0.63030   1.000
    C989    C    0.25390   0.49630   0.63030   1.000
    C990    C    0.49610   0.24630   0.88030   1.000
    C991    C    0.50390   0.75370   0.88030   1.000
    C992    C    0.74610   0.00370   0.13030   1.000
    C993    C    0.75390   0.49630   0.13030   1.000
    C994    C    0.99610   0.74630   0.88030   1.000
    C995    C    0.00390   0.25370   0.88030   1.000
    C996    C    0.24610   0.50370   0.13030   1.000
    C997    C    0.25390   0.99630   0.13030   1.000
    C998    C    0.49610   0.74630   0.38030   1.000
    C999    C    0.50390   0.25370   0.38030   1.000
    C1000   C    0.74610   0.50370   0.63030   1.000
    C1001   C    0.75390   0.99630   0.63030   1.000
    H1002   H    0.01010   0.71850   0.38150   1.000
    H1003   H    0.23990   0.96850   0.63150   1.000
    H1004   H    0.26010   0.53150   0.63150   1.000
    H1005   H    0.48990   0.28150   0.88150   1.000
    H1006   H    0.51010   0.71850   0.88150   1.000
    H1007   H    0.73990   0.96850   0.13150   1.000
    H1008   H    0.76010   0.53150   0.13150   1.000
    H1009   H    0.98990   0.78150   0.88150   1.000
    H1010   H    0.01010   0.21850   0.88150   1.000
    H1011   H    0.23990   0.46850   0.13150   1.000
    H1012   H    0.26010   0.03150   0.13150   1.000
    H1013   H    0.48990   0.78150   0.38150   1.000
    H1014   H    0.51010   0.21850   0.38150   1.000
    H1015   H    0.73990   0.46850   0.63150   1.000
    H1016   H    0.76010   0.03150   0.63150   1.000
    C1017   C    0.88060   0.60450   0.74070   1.000
    C1018   C    0.36940   0.85450   0.99070   1.000
    C1019   C    0.13060   0.64550   0.99070   1.000
    C1020   C    0.61940   0.39550   0.24070   1.000
    C1021   C    0.38060   0.60450   0.24070   1.000
    C1022   C    0.86940   0.85450   0.49070   1.000
    C1023   C    0.63060   0.64550   0.49070   1.000
    C1024   C    0.11940   0.89550   0.24070   1.000
    C1025   C    0.88060   0.10450   0.24070   1.000
    C1026   C    0.36940   0.35450   0.49070   1.000
    C1027   C    0.13060   0.14550   0.49070   1.000
    C1028   C    0.61940   0.89550   0.74070   1.000
    C1029   C    0.38060   0.10450   0.74070   1.000
    C1030   C    0.86940   0.35450   0.99070   1.000
    C1031   C    0.63060   0.14550   0.99070   1.000
    H1032   H    0.86370   0.62400   0.72440   1.000
    H1033   H    0.38630   0.87400   0.97440   1.000
    H1034   H    0.11370   0.62600   0.97440   1.000
    H1035   H    0.63630   0.37600   0.22440   1.000
    H1036   H    0.36370   0.62400   0.22440   1.000
    H1037   H    0.88630   0.87400   0.47440   1.000
    H1038   H    0.61370   0.62600   0.47440   1.000
    H1039   H    0.13630   0.87600   0.22440   1.000
    H1040   H    0.86370   0.12400   0.22440   1.000
    H1041   H    0.38630   0.37400   0.47440   1.000
    H1042   H    0.11370   0.12600   0.47440   1.000
    H1043   H    0.63630   0.87600   0.72440   1.000
    H1044   H    0.36370   0.12400   0.72440   1.000
    H1045   H    0.88630   0.37400   0.97440   1.000
    H1046   H    0.61370   0.12600   0.97440   1.000
    N1047   N    0.99040   0.83450   0.40180   1.000
    N1048   N    0.25960   0.08450   0.65180   1.000
    N1049   N    0.24040   0.41550   0.65180   1.000
    N1050   N    0.50960   0.16550   0.90180   1.000
    N1051   N    0.49040   0.83450   0.90180   1.000
    N1052   N    0.75960   0.08450   0.15180   1.000
    N1053   N    0.74040   0.41550   0.15180   1.000
    N1054   N    0.00960   0.66550   0.90180   1.000
    N1055   N    0.99040   0.33450   0.90180   1.000
    N1056   N    0.25960   0.58450   0.15180   1.000
    N1057   N    0.24040   0.91550   0.15180   1.000
    N1058   N    0.50960   0.66550   0.40180   1.000
    N1059   N    0.49040   0.33450   0.40180   1.000
    N1060   N    0.75960   0.58450   0.65180   1.000
    N1061   N    0.74040   0.91550   0.65180   1.000
    N1062   N    0.99080   0.83140   0.35400   1.000
    N1063   N    0.25920   0.08140   0.60400   1.000
    N1064   N    0.24080   0.41860   0.60400   1.000
    N1065   N    0.50920   0.16860   0.85400   1.000
    N1066   N    0.49080   0.83140   0.85400   1.000
    N1067   N    0.75920   0.08140   0.10400   1.000
    N1068   N    0.74080   0.41860   0.10400   1.000
    N1069   N    0.00920   0.66860   0.85400   1.000
    N1070   N    0.99080   0.33140   0.85400   1.000
    N1071   N    0.25920   0.58140   0.10400   1.000
    N1072   N    0.24080   0.91860   0.10400   1.000
    N1073   N    0.50920   0.66860   0.35400   1.000
    N1074   N    0.49080   0.33140   0.35400   1.000
    N1075   N    0.75920   0.58140   0.60400   1.000
    N1076   N    0.74080   0.91860   0.60400   1.000
    C1077   C    0.83290   0.87090   0.25350   1.000
    N1078   N    0.06850   0.92460   0.78400   1.000
    N1079   N    0.18150   0.17460   0.03400   1.000
    N1080   N    0.31850   0.32540   0.03400   1.000
    N1081   N    0.43150   0.07540   0.28400   1.000
    N1082   N    0.56850   0.92460   0.28400   1.000
    N1083   N    0.68150   0.17460   0.53400   1.000
    N1084   N    0.81850   0.32540   0.53400   1.000
    N1085   N    0.93150   0.57540   0.28400   1.000
    N1086   N    0.06850   0.42460   0.28400   1.000
    N1087   N    0.18150   0.67460   0.53400   1.000
    N1088   N    0.31850   0.82540   0.53400   1.000
    N1089   N    0.43150   0.57540   0.78400   1.000
    N1090   N    0.56850   0.42460   0.78400   1.000
    N1091   N    0.68150   0.67460   0.03400   1.000
    N1092   N    0.81850   0.82540   0.03400   1.000
    C1093   C    0.91710   0.62090   0.50350   1.000
    C1094   C    0.33290   0.87090   0.75350   1.000
    C1095   C    0.16710   0.62910   0.75350   1.000
    C1096   C    0.58290   0.37910   0.00350   1.000
    C1097   C    0.41710   0.62090   0.00350   1.000
    C1098   C    0.66710   0.62910   0.25350   1.000
    C1099   C    0.08290   0.87910   0.00350   1.000
    C1100   C    0.91710   0.12090   0.00350   1.000
    C1101   C    0.33290   0.37090   0.25350   1.000
    C1102   C    0.16710   0.12910   0.25350   1.000
    C1103   C    0.58290   0.87910   0.50350   1.000
    C1104   C    0.41710   0.12090   0.50350   1.000
    C1105   C    0.83290   0.37090   0.75350   1.000
    C1106   C    0.66710   0.12910   0.75350   1.000
    C1107   C    0.99890   0.78280   0.34060   1.000
    C1108   C    0.25110   0.03280   0.59060   1.000
    C1109   C    0.24890   0.46720   0.59060   1.000
    C1110   C    0.50110   0.21720   0.84060   1.000
    C1111   C    0.49890   0.78280   0.84060   1.000
    C1112   C    0.75110   0.03280   0.09060   1.000
    C1113   C    0.74890   0.46720   0.09060   1.000
    C1114   C    0.00110   0.71720   0.84060   1.000
    C1115   C    0.99890   0.28280   0.84060   1.000
    C1116   C    0.25110   0.53280   0.09060   1.000
    C1117   C    0.24890   0.96720   0.09060   1.000
    C1118   C    0.50110   0.71720   0.34060   1.000
    C1119   C    0.49890   0.28280   0.34060   1.000
    C1120   C    0.75110   0.53280   0.59060   1.000
    C1121   C    0.74890   0.96720   0.59060   1.000
    C1122   C    0.00010   0.77260   0.28830   1.000
    C1123   C    0.24990   0.02260   0.53830   1.000
    C1124   C    0.25010   0.47740   0.53830   1.000
    C1125   C    0.49990   0.22740   0.78830   1.000
    C1126   C    0.50010   0.77260   0.78830   1.000
    C1127   C    0.74990   0.02260   0.03830   1.000
    C1128   C    0.75010   0.47740   0.03830   1.000
    C1129   C    0.99990   0.72740   0.78830   1.000
    C1130   C    0.00010   0.27260   0.78830   1.000
    C1131   C    0.24990   0.52260   0.03830   1.000
    C1132   C    0.25010   0.97740   0.03830   1.000
    C1133   C    0.49990   0.72740   0.28830   1.000
    C1134   C    0.50010   0.27260   0.28830   1.000
    C1135   C    0.74990   0.52260   0.53830   1.000
    C1136   C    0.75010   0.97740   0.53830   1.000
    C1137   C    0.12230   0.93980   0.78320   1.000
    C1138   C    0.12770   0.18980   0.03320   1.000
    C1139   C    0.37230   0.31020   0.03320   1.000
    C1140   C    0.37770   0.06020   0.28320   1.000
    C1141   C    0.62230   0.93980   0.28320   1.000
    C1142   C    0.62770   0.18980   0.53320   1.000
    C1143   C    0.87230   0.31020   0.53320   1.000
    C1144   C    0.87770   0.56020   0.28320   1.000
    C1145   C    0.12230   0.43980   0.28320   1.000
    C1146   C    0.12770   0.68980   0.53320   1.000
    C1147   C    0.37230   0.81020   0.53320   1.000
    C1148   C    0.37770   0.56020   0.78320   1.000
    C1149   C    0.62230   0.43980   0.78320   1.000
    C1150   C    0.62770   0.68980   0.03320   1.000
    C1151   C    0.87230   0.81020   0.03320   1.000
loop_
    _geom_bond_atom_site_label_1
    _geom_bond_atom_site_label_2
    _geom_bond_distance
    _geom_bond_site_symmetry_2
    _ccdc_geom_bond_type
    C517   N1079     1.32159      .   S
    C517   C577      1.49278  1_554   S
    C517   C270      1.38458  1_554   S
    C518   N1080     1.32159      .   S
    C518   C578      1.49278  1_554   S
    C518   C613      1.38458  1_554   S
    C529   N1091     1.32159      .   S
    C529   C589      1.49278  1_554   S
    C529   C624      1.38458  1_554   S
    C530   N1092     1.32159      .   S
    C530   C590      1.49278  1_554   S
    C530   C625      1.38458  1_554   S
    N674   C689      1.42040      .   S
    N674   N659      1.42025  1_554   S
    N675   C690      1.42040      .   S
    N675   N660      1.42025  1_554   S
    N678   C693      1.42040      .   S
    N678   N663      1.42025  1_554   S
    N679   C694      1.42040      .   S
    N679   N664      1.42025  1_554   S
    C813   C1099     1.38039      .   S
    C813   H828      0.94928      .   S
    C813   C478      1.37131  1_554   S
    C810   C1097     1.38039      .   S
    C810   H825      0.94928      .   S
    C810   C475      1.37131  1_554   S
    C809   C1096     1.38039      .   S
    C809   H824      0.94928      .   S
    C809   C474      1.37131  1_554   S
    C814   C1100     1.38039      .   S
    C814   H829      0.94928      .   S
    C814   C479      1.37131  1_554   S
    C1096  C945      1.47443      .   S
    C1096  N975      1.36668  1_554   S
    C1097  C946      1.47443      .   S
    C1097  N976      1.36668  1_554   S
    C1099  C949      1.47443      .   S
    C1099  N979      1.36668  1_554   S
    C1100  C950      1.47443      .   S
    C1100  N980      1.36668  1_554   S
    O220   C1127     1.28388      .   S
    O221   C1128     1.28388      .   S
    O224   C1131     1.28388      .   S
    O225   C1132     1.28388      .   S
    N357   N792      1.31686      .   S
    N357   C502      1.32464  1_554   S
    N358   N793      1.31686      .   S
    N358   C503      1.32464  1_554   S
    N835   N804      1.31686      .   S
    N835   C514      1.32464  1_554   S
    N836   N805      1.31686      .   S
    N836   C515      1.32464  1_554   S
    O539   C950      1.26099      .   S
    O538   C949      1.26099      .   S
    O535   C946      1.26099      .   S
    O534   C945      1.26099      .   S
    O391   C1132     1.27840  1_545   S
    O390   C1131     1.27840      .   S
    O387   C1128     1.27840      .   S
    O386   C1127     1.27840  1_565   S
    C777   N792      1.31076      .   S
    C777   C487      1.49981      .   S
    C777   C1018     1.38746  1_554   S
    C778   N793      1.31076      .   S
    C778   C488      1.49981      .   S
    C778   C1019     1.38746  1_554   S
    C789   N804      1.31076      .   S
    C789   C499      1.49981      .   S
    C789   C1030     1.38746  1_554   S
    C790   N805      1.31076      .   S
    C790   C500      1.49981      .   S
    C790   C1031     1.38746  1_554   S
    C704   C689      1.42021      .   S
    C704   H719      0.95166      .   S
    C704   C734      1.41901  1_554   S
    C705   C690      1.42021      .   S
    C705   H720      0.95166      .   S
    C705   C735      1.41901  1_554   S
    C708   C693      1.42021      .   S
    C708   H723      0.95166      .   S
    C708   C738      1.41901  1_554   S
    C709   C694      1.42021      .   S
    C709   H724      0.95166      .   S
    C709   C739      1.41901  1_554   S
    C1151  C560      1.50444      .   S
    C1151  N760      1.33941      .   S
    C1151  C625      1.35892  1_554   S
    C1150  C559      1.50444      .   S
    C1150  N759      1.33941      .   S
    C1150  C624      1.35892  1_554   S
    C1139  C548      1.50444      .   S
    C1139  N748      1.33941      .   S
    C1139  C613      1.35892  1_554   S
    C1138  C547      1.50444      .   S
    C1138  N747      1.33941      .   S
    C1138  C270      1.35892  1_554   S
    H931   O916      1.00159      .   S
    H935   O920      1.00159      .   S
    H930   O915      1.00159      .   S
    H934   O919      1.00159      .   S
    N1092  N760      1.32020      .   S
    N1091  N759      1.32020      .   S
    N1080  N748      1.32020      .   S
    N1079  N747      1.32020      .   S
    O171   C547      1.26773      .   S
    O184   C560      1.26773      .   S
    O183   C559      1.26773      .   S
    O172   C548      1.26773      .   S
    C945   O414      1.27529      .   S
    C946   O415      1.27529      .   S
    C949   O418      1.27529      .   S
    C950   O419      1.27529      .   S
    C689   C564      1.45872      .   S
    C690   C565      1.45872      .   S
    C693   C568      1.45872      .   S
    C694   C569      1.45872      .   S
    C1131  C1116     1.48318      .   S
    C1127  C1112     1.48318      .   S
    C1128  C1113     1.48318      .   S
    C1132  C1117     1.48318      .   S
    O123   C487      1.25313      .   S
    O379   C499      1.25313      .   S
    O380   C500      1.25313      .   S
    O368   C488      1.25313      .   S
    C547   O156      1.26140      .   S
    C548   O157      1.26140      .   S
    C559   O168      1.26140      .   S
    C560   O169      1.26140      .   S
    C500   O124      1.27282      .   S
    C499   O75       1.27282      .   S
    C488   O114      1.27282      .   S
    C487   O113      1.27282      .   S
    O965   C569      1.25436      .   S
    O960   C564      1.25436      .   S
    O961   C565      1.25436      .   S
    O964   C568      1.25436      .   S
    C569   O287      1.26166      .   S
    C568   O286      1.26166      .   S
    C565   O283      1.26166      .   S
    C564   O282      1.26166      .   S
    C1116  N1071     1.35627      .   S
    C1116  C996      1.35551      .   S
    C1112  N1067     1.35627      .   S
    C1112  C992      1.35551      .   S
    C1113  N1068     1.35627      .   S
    C1113  C993      1.35551      .   S
    C1117  N1072     1.35627      .   S
    C1117  C997      1.35551      .   S
    N1072  N1057     1.33553      .   S
    N1071  N1056     1.33553      .   S
    N1067  N1052     1.33553      .   S
    N1068  N1053     1.33553      .   S
    H147   O132      0.99990      .   S
    H144   O129      0.99990      .   S
    H143   O128      0.99990      .   S
    H148   O133      0.99990      .   S
    C992   H1007     0.94816  1_545   S
    C992   C646      1.39295      .   S
    C997   H1012     0.94816  1_565   S
    C997   C651      1.39295      .   S
    C996   H1011     0.94816      .   S
    C996   C650      1.39295      .   S
    C993   H1008     0.94816      .   S
    C993   C647      1.39295      .   S
    O890   H905      1.00052      .   S
    O886   H901      1.00052      .   S
    O889   H904      1.00052      .   S
    O885   H900      1.00052      .   S
    N1052  C646      1.37384      .   S
    N1056  C650      1.37384      .   S
    N1053  C647      1.37384      .   S
    N1057  C651      1.37384      .   S
    O233   C444      1.27742      .   S
    O234   C445      1.27742      .   S
    O237   C448      1.27742      .   S
    O238   C449      1.27742      .   S
    C651   C771      1.48314      .   S
    C646   C766      1.48314      .   S
    C647   C767      1.48314      .   S
    C650   C770      1.48314      .   S
    O210   C601      1.26311      .   S
    O209   C600      1.26311      .   S
    O205   C596      1.26311      .   S
    O206   C597      1.26311      .   S
    O250   C611      1.26042      .   S
    O255   C264      1.26042      .   S
    O254   C263      1.26042      .   S
    O251   C612      1.26042      .   S
    O399   C579      1.25115      .   S
    O400   C580      1.25115      .   S
    O403   C583      1.25115      .   S
    O404   C584      1.25115      .   S
    C597   O81       1.26863      .   S
    C597   C477      1.46458      .   S
    C601   O274      1.26863      .   S
    C601   C481      1.46458      .   S
    C600   O273      1.26863      .   S
    C600   C480      1.46458      .   S
    C596   O80       1.26863      .   S
    C596   C476      1.46458      .   S
    N847   C481      1.37856      .   S
    N847   N982      1.33892      .   S
    N846   C480      1.37856      .   S
    N846   N981      1.33892      .   S
    N842   C476      1.37856      .   S
    N842   N977      1.33892      .   S
    N843   C477      1.37856      .   S
    N843   N978      1.33892      .   S
    C444   O297      1.24178      .   S
    C444   C504      1.49278      .   S
    C445   O298      1.24178      .   S
    C445   C505      1.49278      .   S
    C449   O302      1.24178      .   S
    C449   C509      1.49278      .   S
    C448   O301      1.24178      .   S
    C448   C508      1.49278      .   S
    O312   H327      0.99793      .   S
    O313   H328      0.99793      .   S
    O316   H331      0.99793      .   S
    O317   H332      0.99793      .   S
    C612   O191      1.25764      .   S
    C612   C737      1.41764      .   S
    C264   O195      1.25764      .   S
    C264   C741      1.41764      .   S
    C263   O194      1.25764      .   S
    C263   C740      1.41764      .   S
    C611   O190      1.25764      .   S
    C611   C736      1.41764      .   S
    C476   C811      1.37131      .   S
    C481   C816      1.37131      .   S
    C477   C812      1.37131      .   S
    C480   C815      1.37131      .   S
    C580   O430      1.25874      .   S
    C580   C520      1.49278      .   S
    C584   O434      1.25874      .   S
    C584   C524      1.49278      .   S
    C579   O429      1.25874      .   S
    C579   C519      1.49278      .   S
    C583   O433      1.25874      .   S
    C583   C523      1.49278      .   S
    N982   C1102     1.36668      .   S
    N981   C1101     1.36668      .   S
    N978   C1098     1.36668      .   S
    N977   C1077     1.36668      .   S
    C771   O466      1.28769  1_565   S
    C771   O349      1.28267      .   S
    C767   O462      1.28769      .   S
    C767   O345      1.28267      .   S
    C766   O461      1.28769  1_545   S
    C766   O344      1.28267      .   S
    C770   O465      1.28769      .   S
    C770   O348      1.28267      .   S
    N661   C736      1.41969      .   S
    N661   N676      1.42025      .   S
    N662   C737      1.41969      .   S
    N662   N677      1.42025      .   S
    N665   C740      1.41969      .   S
    N665   N680      1.42025      .   S
    N666   C741      1.41969      .   S
    N666   N681      1.42025      .   S
    H1040  C1025     0.95047      .   S
    H1036  C1021     0.95047      .   S
    H1035  C1020     0.95047      .   S
    H1039  C1024     0.95047      .   S
    H629   C614      0.95110      .   S
    H630   C615      0.95110      .   S
    H634   C619      0.95110      .   S
    H633   C618      0.95110      .   S
    C509   C1025     1.34858      .   S
    C509   N364      1.32464      .   S
    C508   C1024     1.34858      .   S
    C508   N363      1.32464      .   S
    C505   C1021     1.34858      .   S
    C505   N360      1.32464      .   S
    C504   C1020     1.34858      .   S
    C504   N359      1.32464      .   S
    C736   C706      1.41901      .   S
    C741   C711      1.41901      .   S
    C740   C710      1.41901      .   S
    C737   C707      1.41901      .   S
    C1024  C783      1.38746      .   S
    C1025  C784      1.38746      .   S
    C1021  C780      1.38746      .   S
    C1020  C779      1.38746      .   S
    C614   C519      1.38458      .   S
    C614   C1140     1.35892      .   S
    C615   C520      1.38458      .   S
    C615   C1141     1.35892      .   S
    C618   C523      1.38458      .   S
    C618   C1144     1.35892      .   S
    C619   C524      1.38458      .   S
    C619   C1145     1.35892      .   S
    C523   N1085     1.32159      .   S
    C519   N1081     1.32159      .   S
    C520   N1082     1.32159      .   S
    C524   N1086     1.32159      .   S
    N676   C691      1.42040      .   S
    N677   C692      1.42040      .   S
    N680   C695      1.42040      .   S
    N681   C696      1.42040      .   S
    C811   C1077     1.38039      .   S
    C811   H826      0.94928      .   S
    C812   C1098     1.38039      .   S
    C812   H827      0.94928      .   S
    C815   C1101     1.38039      .   S
    C815   H830      0.94928      .   S
    C816   C1102     1.38039      .   S
    C816   H831      0.94928      .   S
    C1101  C951      1.47443      .   S
    C1098  C948      1.47443      .   S
    C1077  C947      1.47443      .   S
    C1102  C952      1.47443      .   S
    O9     C70       1.28388  1_455   S
    O227   C1134     1.28388      .   S
    O226   C1133     1.28388      .   S
    O215   C1122     1.28388  1_655   S
    N359   N794      1.31686      .   S
    N364   N799      1.31686      .   S
    N363   N798      1.31686      .   S
    N360   N795      1.31686      .   S
    O540   C951      1.26099      .   S
    O537   C948      1.26099      .   S
    O536   C947      1.26099      .   S
    O541   C952      1.26099      .   S
    O19    C70       1.27840      .   S
    O381   C1122     1.27840      .   S
    O392   C1133     1.27840      .   S
    O393   C1134     1.27840      .   S
    C779   N794      1.31076      .   S
    C779   C489      1.49981      .   S
    C780   N795      1.31076      .   S
    C780   C490      1.49981      .   S
    C784   N799      1.31076      .   S
    C784   C494      1.49981      .   S
    C783   N798      1.31076      .   S
    C783   C493      1.49981      .   S
    C711   C696      1.42021      .   S
    C711   H726      0.95166      .   S
    C710   C695      1.42021      .   S
    C710   H725      0.95166      .   S
    C707   C692      1.42021      .   S
    C707   H722      0.95166      .   S
    C706   C691      1.42021      .   S
    C706   H721      0.95166      .   S
    C1145  C554      1.50444      .   S
    C1145  N754      1.33941      .   S
    C1144  C553      1.50444      .   S
    C1144  N753      1.33941      .   S
    C1141  C550      1.50444      .   S
    C1141  N750      1.33941      .   S
    C1140  C549      1.50444      .   S
    C1140  N749      1.33941      .   S
    H932   O917      1.00159      .   S
    H933   O918      1.00159      .   S
    H936   O921      1.00159      .   S
    H937   O922      1.00159      .   S
    N1085  N753      1.32020      .   S
    N1086  N754      1.32020      .   S
    N1081  N749      1.32020      .   S
    N1082  N750      1.32020      .   S
    C951   O420      1.27529      .   S
    C947   O416      1.27529      .   S
    C948   O417      1.27529      .   S
    C952   O421      1.27529      .   S
    O173   C549      1.26773      .   S
    O174   C550      1.26773      .   S
    O177   C553      1.26773      .   S
    O178   C554      1.26773      .   S
    C692   C567      1.45872      .   S
    C696   C571      1.45872      .   S
    C695   C570      1.45872      .   S
    C691   C566      1.45872      .   S
    C70    C69       1.48318  1_655   S
    C1122  C1107     1.48318  1_455   S
    C1133  C1118     1.48318      .   S
    C1134  C1119     1.48318      .   S
    O370   C490      1.25313      .   S
    O369   C489      1.25313      .   S
    O373   C493      1.25313      .   S
    O374   C494      1.25313      .   S
    C553   O162      1.26140      .   S
    C550   O159      1.26140      .   S
    C549   O158      1.26140      .   S
    C554   O163      1.26140      .   S
    C489   O115      1.27282      .   S
    C493   O119      1.27282      .   S
    C490   O116      1.27282      .   S
    C494   O120      1.27282      .   S
    O966   C570      1.25436      .   S
    O967   C571      1.25436      .   S
    O963   C567      1.25436      .   S
    O962   C566      1.25436      .   S
    C567   O285      1.26166      .   S
    C571   O289      1.26166      .   S
    C570   O288      1.26166      .   S
    C566   O284      1.26166      .   S
    C69    N66       1.35627      .   S
    C69    C61       1.35551  1_455   S
    C1107  N1062     1.35627      .   S
    C1107  C987      1.35551  1_655   S
    C1119  N1074     1.35627      .   S
    C1119  C999      1.35551      .   S
    C1118  N1073     1.35627      .   S
    C1118  C998      1.35551      .   S
    N66    N65       1.33553      .   S
    N1062  N1047     1.33553      .   S
    N1073  N1058     1.33553      .   S
    N1074  N1059     1.33553      .   S
    H145   O130      0.99990      .   S
    H149   O134      0.99990      .   S
    H150   O135      0.99990      .   S
    H146   O131      0.99990      .   S
    C61    H62       0.94816      .   S
    C61    C37       1.39295  1_655   S
    C987   H1002     0.94816      .   S
    C987   C641      1.39295  1_455   S
    C999   H1014     0.94816      .   S
    C999   C653      1.39295      .   S
    C998   H1013     0.94816      .   S
    C998   C652      1.39295      .   S
    O892   H907      1.00052      .   S
    O891   H906      1.00052      .   S
    O888   H903      1.00052      .   S
    O887   H902      1.00052      .   S
    N65    C37       1.37384      .   S
    N1059  C653      1.37384      .   S
    N1047  C641      1.37384      .   S
    N1058  C652      1.37384      .   S
    O239   C450      1.27742      .   S
    O235   C446      1.27742      .   S
    O240   C451      1.27742      .   S
    O236   C447      1.27742      .   S
    C37    C45       1.48314      .   S
    C652   C772      1.48314      .   S
    C653   C773      1.48314      .   S
    C641   C761      1.48314      .   S
    O8     C33       1.26311      .   S
    O200   C591      1.26311      .   S
    O211   C602      1.26311      .   S
    O212   C603      1.26311      .   S
    O11    C34       1.26042      .   S
    O256   C265      1.26042      .   S
    O257   C266      1.26042      .   S
    O245   C606      1.26042      .   S
    O401   C581      1.25115      .   S
    O402   C582      1.25115      .   S
    O405   C585      1.25115      .   S
    O406   C586      1.25115      .   S
    C33    O12       1.26863      .   S
    C33    C25       1.46458      .   S
    C603   O276      1.26863      .   S
    C603   C483      1.46458      .   S
    C591   O260      1.26863      .   S
    C591   C471      1.46458      .   S
    C602   O275      1.26863      .   S
    C602   C482      1.46458      .   S
    N51    C25       1.37856      .   S
    N51    N60       1.33892      .   S
    N837   C471      1.37856      .   S
    N837   N972      1.33892      .   S
    N849   C483      1.37856      .   S
    N849   N984      1.33892      .   S
    N848   C482      1.37856      .   S
    N848   N983      1.33892      .   S
    C450   O303      1.24178      .   S
    C450   C510      1.49278      .   S
    C447   O300      1.24178      .   S
    C447   C507      1.49278      .   S
    C446   O299      1.24178      .   S
    C446   C506      1.49278      .   S
    C451   O304      1.24178      .   S
    C451   C511      1.49278      .   S
    O315   H330      0.99793      .   S
    O314   H329      0.99793      .   S
    O319   H334      0.99793      .   S
    O318   H333      0.99793      .   S
    C34    O7        1.25764      .   S
    C34    C43       1.41764      .   S
    C606   O185      1.25764      .   S
    C606   C731      1.41764      .   S
    C266   O197      1.25764      .   S
    C266   C743      1.41764      .   S
    C265   O196      1.25764      .   S
    C265   C742      1.41764      .   S
    C25    C48       1.37131      .   S
    C483   C818      1.37131      .   S
    C482   C817      1.37131      .   S
    C471   C806      1.37131      .   S
    C581   O431      1.25874      .   S
    C581   C521      1.49278      .   S
    C582   O432      1.25874      .   S
    C582   C522      1.49278      .   S
    C585   O435      1.25874      .   S
    C585   C525      1.49278      .   S
    C586   O436      1.25874      .   S
    C586   C526      1.49278      .   S
    N60    C68       1.36668      .   S
    N972   C1093     1.36668      .   S
    N984   C1104     1.36668      .   S
    N983   C1103     1.36668      .   S
    C45    O24       1.28769  1_455   S
    C45    O17       1.28267      .   S
    C773   O468      1.28769      .   S
    C773   O351      1.28267      .   S
    C772   O467      1.28769      .   S
    C772   O350      1.28267      .   S
    C761   O456      1.28769  1_655   S
    C761   O339      1.28267      .   S
    N38    C43       1.41969      .   S
    N38    N39       1.42025      .   S
    N668   C743      1.41969      .   S
    N668   N683      1.42025      .   S
    N667   C742      1.41969      .   S
    N667   N682      1.42025      .   S
    N656   C731      1.41969      .   S
    N656   N671      1.42025      .   S
    H1038  C1023     0.95047      .   S
    H1037  C1022     0.95047      .   S
    H1041  C1026     0.95047      .   S
    H1042  C1027     0.95047      .   S
    H636   C621      0.95110      .   S
    H635   C620      0.95110      .   S
    H632   C617      0.95110      .   S
    H631   C616      0.95110      .   S
    C511   C1027     1.34858      .   S
    C511   N366      1.32464      .   S
    C510   C1026     1.34858      .   S
    C510   N365      1.32464      .   S
    C507   C1023     1.34858      .   S
    C507   N362      1.32464      .   S
    C506   C1022     1.34858      .   S
    C506   N361      1.32464      .   S
    C43    C41       1.41901      .   S
    C731   C701      1.41901      .   S
    C743   C713      1.41901      .   S
    C742   C712      1.41901      .   S
    C1022  C781      1.38746      .   S
    C1027  C786      1.38746      .   S
    C1026  C785      1.38746      .   S
    C1023  C782      1.38746      .   S
    C617   C522      1.38458      .   S
    C617   C1143     1.35892      .   S
    C621   C526      1.38458      .   S
    C621   C1147     1.35892      .   S
    C620   C525      1.38458      .   S
    C620   C1146     1.35892      .   S
    C616   C521      1.38458      .   S
    C616   C1142     1.35892      .   S
    C521   N1083     1.32159      .   S
    C526   N1088     1.32159      .   S
    C525   N1087     1.32159      .   S
    C522   N1084     1.32159      .   S
    N39    C40       1.42040      .   S
    N683   C698      1.42040      .   S
    N682   C697      1.42040      .   S
    N671   C686      1.42040      .   S
    C48    C68       1.38039      .   S
    C48    H49       0.94928      .   S
    C806   C1093     1.38039      .   S
    C806   H821      0.94928      .   S
    C818   C1104     1.38039      .   S
    C818   H833      0.94928      .   S
    C817   C1103     1.38039      .   S
    C817   H832      0.94928      .   S
    C68    C58       1.47443      .   S
    C1103  C953      1.47443      .   S
    C1093  C942      1.47443      .   S
    C1104  C954      1.47443      .   S
    O217   C1124     1.28388      .   S
    O216   C1123     1.28388      .   S
    O228   C1135     1.28388      .   S
    O229   C1136     1.28388      .   S
    N361   N796      1.31686      .   S
    N362   N797      1.31686      .   S
    N365   N800      1.31686      .   S
    N366   N801      1.31686      .   S
    O29    C58       1.26099      .   S
    O542   C953      1.26099      .   S
    O543   C954      1.26099      .   S
    O531   C942      1.26099      .   S
    O382   C1123     1.27840  1_565   S
    O383   C1124     1.27840      .   S
    O394   C1135     1.27840      .   S
    O395   C1136     1.27840  1_545   S
    C785   N800      1.31076      .   S
    C785   C495      1.49981      .   S
    C786   N801      1.31076      .   S
    C786   C496      1.49981      .   S
    C782   N797      1.31076      .   S
    C782   C492      1.49981      .   S
    C781   N796      1.31076      .   S
    C781   C491      1.49981      .   S
    C41    C40       1.42021      .   S
    C41    H42       0.95166      .   S
    C713   C698      1.42021      .   S
    C713   H728      0.95166      .   S
    C712   C697      1.42021      .   S
    C712   H727      0.95166      .   S
    C701   C686      1.42021      .   S
    C701   H716      0.95166      .   S
    C1147  C556      1.50444      .   S
    C1147  N756      1.33941      .   S
    C1142  C551      1.50444      .   S
    C1142  N751      1.33941      .   S
    C1146  C555      1.50444      .   S
    C1146  N755      1.33941      .   S
    C1143  C552      1.50444      .   S
    C1143  N752      1.33941      .   S
    H57    O56       1.00159      .   S
    H939   O924      1.00159      .   S
    H927   O912      1.00159      .   S
    H938   O923      1.00159      .   S
    N1087  N755      1.32020      .   S
    N1088  N756      1.32020      .   S
    N1084  N752      1.32020      .   S
    N1083  N751      1.32020      .   S
    C942   O411      1.27529      .   S
    O176   C552      1.26773      .   S
    O180   C556      1.26773      .   S
    C58    O21       1.27529      .   S
    C954   O423      1.27529      .   S
    O179   C555      1.26773      .   S
    C953   O422      1.27529      .   S
    O175   C551      1.26773      .   S
    C40    C31       1.45872      .   S
    C686   C561      1.45872      .   S
    C697   C572      1.45872      .   S
    C698   C573      1.45872      .   S
    C1123  C1108     1.48318      .   S
    C1124  C1109     1.48318      .   S
    C1135  C1120     1.48318      .   S
    C1136  C1121     1.48318      .   S
    O372   C492      1.25313      .   S
    O375   C495      1.25313      .   S
    O376   C496      1.25313      .   S
    O371   C491      1.25313      .   S
    C551   O160      1.26140      .   S
    C552   O161      1.26140      .   S
    C555   O164      1.26140      .   S
    C556   O165      1.26140      .   S
    C491   O117      1.27282      .   S
    C492   O118      1.27282      .   S
    C495   O121      1.27282      .   S
    C496   O72       1.27282      .   S
    O59    C31       1.25436      .   S
    O968   C572      1.25436      .   S
    O969   C573      1.25436      .   S
    O957   C561      1.25436      .   S
    C31    O13       1.26166      .   S
    C561   O279      1.26166      .   S
    C572   O290      1.26166      .   S
    C573   O291      1.26166      .   S
    C1121  N1076     1.35627      .   S
    C1121  C1001     1.35551      .   S
    C1109  N1064     1.35627      .   S
    C1109  C989      1.35551      .   S
    C1108  N1063     1.35627      .   S
    C1108  C988      1.35551      .   S
    C1120  N1075     1.35627      .   S
    C1120  C1000     1.35551      .   S
    N1064  N1049     1.33553      .   S
    N1063  N1048     1.33553      .   S
    N1075  N1060     1.33553      .   S
    N1076  N1061     1.33553      .   S
    H4     O3        0.99990      .   S
    H152   O137      0.99990      .   S
    H151   O136      0.99990      .   S
    H140   O125      0.99990      .   S
    C1001  H1016     0.94816  1_565   S
    C1001  C655      1.39295      .   S
    C1000  H1015     0.94816      .   S
    C1000  C654      1.39295      .   S
    C988   H1003     0.94816  1_545   S
    C988   C642      1.39295      .   S
    C989   H1004     0.94816      .   S
    C989   C643      1.39295      .   S
    O54    H55       1.00052      .   S
    O894   H909      1.00052      .   S
    O893   H908      1.00052      .   S
    O882   H897      1.00052      .   S
    N1060  C654      1.37384      .   S
    N1048  C642      1.37384      .   S
    N1049  C643      1.37384      .   S
    N1061  C655      1.37384      .   S
    O10    C23       1.27742      .   S
    O230   C441      1.27742      .   S
    O241   C452      1.27742      .   S
    O242   C453      1.27742      .   S
    C642   C762      1.48314      .   S
    C643   C763      1.48314      .   S
    C654   C774      1.48314      .   S
    C655   C775      1.48314      .   S
    O213   C604      1.26311      .   S
    O214   C605      1.26311      .   S
    O201   C592      1.26311      .   S
    O202   C593      1.26311      .   S
    O246   C607      1.26042      .   S
    O258   C267      1.26042      .   S
    O259   C268      1.26042      .   S
    O247   C608      1.26042      .   S
    O20    C32       1.25115      .   S
    O396   C576      1.25115      .   S
    O407   C587      1.25115      .   S
    O408   C588      1.25115      .   S
    C592   O76       1.26863      .   S
    C592   C472      1.46458      .   S
    C605   O278      1.26863      .   S
    C605   C485      1.46458      .   S
    C593   O77       1.26863      .   S
    C593   C473      1.46458      .   S
    C604   O277      1.26863      .   S
    C604   C484      1.46458      .   S
    N851   C485      1.37856      .   S
    N851   N986      1.33892      .   S
    N850   C484      1.37856      .   S
    N850   N985      1.33892      .   S
    N839   C473      1.37856      .   S
    N839   N974      1.33892      .   S
    N838   C472      1.37856      .   S
    N838   N973      1.33892      .   S
    C453   O306      1.24178      .   S
    C453   C513      1.49278      .   S
    C23    O14       1.24178      .   S
    C23    C27       1.49278      .   S
    C441   O294      1.24178      .   S
    C441   C501      1.49278      .   S
    C452   O305      1.24178      .   S
    C452   C512      1.49278      .   S
    O15    H16       0.99793      .   S
    O321   H336      0.99793      .   S
    O309   H324      0.99793      .   S
    O320   H335      0.99793      .   S
    C607   O186      1.25764      .   S
    C607   C732      1.41764      .   S
    C608   O187      1.25764      .   S
    C608   C733      1.41764      .   S
    C267   O198      1.25764      .   S
    C267   C744      1.41764      .   S
    C268   O199      1.25764      .   S
    C268   C745      1.41764      .   S
    C485   C820      1.37131      .   S
    C484   C819      1.37131      .   S
    C473   C808      1.37131      .   S
    C472   C807      1.37131      .   S
    C587   O437      1.25874      .   S
    C587   C527      1.49278      .   S
    C32    O22       1.25874      .   S
    C32    C28       1.49278      .   S
    C588   O438      1.25874      .   S
    C588   C528      1.49278      .   S
    C576   O426      1.25874      .   S
    C576   C516      1.49278      .   S
    N986   C1106     1.36668      .   S
    N985   C1105     1.36668      .   S
    N974   C1095     1.36668      .   S
    N973   C1094     1.36668      .   S
    C763   O458      1.28769      .   S
    C763   O341      1.28267      .   S
    C762   O457      1.28769  1_545   S
    C762   O340      1.28267      .   S
    C774   O469      1.28769      .   S
    C774   O352      1.28267      .   S
    C775   O470      1.28769  1_565   S
    C775   O353      1.28267      .   S
    N670   C745      1.41969      .   S
    N670   N685      1.42025      .   S
    N657   C732      1.41969      .   S
    N657   N672      1.42025      .   S
    N658   C733      1.41969      .   S
    N658   N673      1.42025      .   S
    N669   C744      1.41969      .   S
    N669   N684      1.42025      .   S
    H64    C63       0.95047      .   S
    H1044  C1029     0.95047      .   S
    H1043  C1028     0.95047      .   S
    H1032  C1017     0.95047      .   S
    H626   C269      0.95110      .   S
    H637   C622      0.95110      .   S
    H36    C35       0.95110      .   S
    H638   C623      0.95110      .   S
    C27    C63       1.34858      .   S
    C27    N50       1.32464      .   S
    C501   C1017     1.34858      .   S
    C501   N356      1.32464      .   S
    C512   C1028     1.34858      .   S
    C512   N367      1.32464      .   S
    C513   C1029     1.34858      .   S
    C513   N834      1.32464      .   S
    C745   C715      1.41901      .   S
    C744   C714      1.41901      .   S
    C733   C703      1.41901      .   S
    C732   C702      1.41901      .   S
    C63    C46       1.38746      .   S
    C1017  C776      1.38746      .   S
    C1029  C788      1.38746      .   S
    C1028  C787      1.38746      .   S
    C35    C28       1.38458      .   S
    C35    C71       1.35892      .   S
    C269   C516      1.38458      .   S
    C269   C1137     1.35892      .   S
    C623   C528      1.38458      .   S
    C623   C1149     1.35892      .   S
    C622   C527      1.38458      .   S
    C622   C1148     1.35892      .   S
    C528   N1090     1.32159      .   S
    C516   N1078     1.32159      .   S
    C527   N1089     1.32159      .   S
    C28    N67       1.32159      .   S
    N685   C700      1.42040      .   S
    N684   C699      1.42040      .   S
    N673   C688      1.42040      .   S
    N672   C687      1.42040      .   S
    C820   C1106     1.38039      .   S
    C820   H355      0.94928      .   S
    C819   C1105     1.38039      .   S
    C819   H354      0.94928      .   S
    C808   C1095     1.38039      .   S
    C808   H823      0.94928      .   S
    C807   C1094     1.38039      .   S
    C807   H822      0.94928      .   S
    C1106  C956      1.47443      .   S
    C1094  C943      1.47443      .   S
    C1105  C955      1.47443      .   S
    C1095  C944      1.47443      .   S
    O219   C1126     1.28388      .   S
    O223   C1130     1.28388  1_655   S
    O222   C1129     1.28388  1_455   S
    O218   C1125     1.28388      .   S
    N50    N47       1.31686      .   S
    N834   N803      1.31686      .   S
    N356   N791      1.31686      .   S
    N367   N802      1.31686      .   S
    O533   C944      1.26099      .   S
    O544   C955      1.26099      .   S
    O545   C956      1.26099      .   S
    O532   C943      1.26099      .   S
    O388   C1129     1.27840      .   S
    O384   C1125     1.27840      .   S
    O389   C1130     1.27840      .   S
    O385   C1126     1.27840      .   S
    C46    N47       1.31076      .   S
    C46    C26       1.49981      .   S
    C787   N802      1.31076      .   S
    C787   C497      1.49981      .   S
    C788   N803      1.31076      .   S
    C788   C498      1.49981      .   S
    C776   N791      1.31076      .   S
    C776   C486      1.49981      .   S
    C703   C688      1.42021      .   S
    C703   H718      0.95166      .   S
    C715   C700      1.42021      .   S
    C715   H730      0.95166      .   S
    C702   C687      1.42021      .   S
    C702   H717      0.95166      .   S
    C714   C699      1.42021      .   S
    C714   H729      0.95166      .   S
    C71    C30       1.50444      .   S
    C71    N44       1.33941      .   S
    C1137  C546      1.50444      .   S
    C1137  N746      1.33941      .   S
    C1148  C557      1.50444      .   S
    C1148  N757      1.33941      .   S
    C1149  C558      1.50444      .   S
    C1149  N758      1.33941      .   S
    H928   O913      1.00159      .   S
    H929   O914      1.00159      .   S
    H940   O925      1.00159      .   S
    H941   O926      1.00159      .   S
    N67    N44       1.32020      .   S
    N1078  N746      1.32020      .   S
    N1089  N757      1.32020      .   S
    N1090  N758      1.32020      .   S
    C956   O425      1.27529      .   S
    O6     C30       1.26773      .   S
    C943   O412      1.27529      .   S
    C944   O413      1.27529      .   S
    C955   O424      1.27529      .   S
    O170   C546      1.26773      .   S
    O181   C557      1.26773      .   S
    O182   C558      1.26773      .   S
    C687   C562      1.45872      .   S
    C688   C563      1.45872      .   S
    C699   C574      1.45872      .   S
    C700   C575      1.45872      .   S
    C1125  C1110     1.48318      .   S
    C1126  C1111     1.48318      .   S
    C1129  C1114     1.48318  1_655   S
    C1130  C1115     1.48318  1_455   S
    O18    C26       1.25313      .   S
    O377   C497      1.25313      .   S
    O378   C498      1.25313      .   S
    O122   C486      1.25313      .   S
    C557   O166      1.26140      .   S
    C546   O155      1.26140      .   S
    C30    O5        1.26140      .   S
    C558   O167      1.26140      .   S
    C26    O2        1.27282      .   S
    C498   O74       1.27282      .   S
    C486   O112      1.27282      .   S
    C497   O73       1.27282      .   S
    O959   C563      1.25436      .   S
    O970   C574      1.25436      .   S
    O958   C562      1.25436      .   S
    O971   C575      1.25436      .   S
    C562   O280      1.26166      .   S
    C563   O281      1.26166      .   S
    C574   O292      1.26166      .   S
    C575   O293      1.26166      .   S
    C1114  N1069     1.35627      .   S
    C1114  C994      1.35551  1_455   S
    C1111  N1066     1.35627      .   S
    C1111  C991      1.35551      .   S
    C1115  N1070     1.35627      .   S
    C1115  C995      1.35551  1_655   S
    C1110  N1065     1.35627      .   S
    C1110  C990      1.35551      .   S
    N1065  N1050     1.33553      .   S
    N1066  N1051     1.33553      .   S
    N1069  N1054     1.33553      .   S
    N1070  N1055     1.33553      .   S
    H141   O126      0.99990      .   S
    H142   O127      0.99990      .   S
    H153   O138      0.99990      .   S
    H154   O139      0.99990      .   S
    C990   H1005     0.94816      .   S
    C990   C644      1.39295      .   S
    C991   H1006     0.94816      .   S
    C991   C645      1.39295      .   S
    C994   H1009     0.94816      .   S
    C994   C648      1.39295  1_655   S
    C995   H1010     0.94816      .   S
    C995   C649      1.39295  1_455   S
    O895   H910      1.00052      .   S
    O896   H911      1.00052      .   S
    O884   H899      1.00052      .   S
    O883   H898      1.00052      .   S
    N1050  C644      1.37384      .   S
    N1051  C645      1.37384      .   S
    N1054  C648      1.37384      .   S
    N1055  C649      1.37384      .   S
    O244   C455      1.27742      .   S
    O243   C454      1.27742      .   S
    O232   C443      1.27742      .   S
    O231   C442      1.27742      .   S
    C644   C764      1.48314      .   S
    C645   C765      1.48314      .   S
    C648   C768      1.48314      .   S
    C649   C769      1.48314      .   S
    O208   C599      1.26311      .   S
    O207   C598      1.26311      .   S
    O204   C595      1.26311      .   S
    O203   C594      1.26311      .   S
    O253   C262      1.26042      .   S
    O249   C610      1.26042      .   S
    O252   C261      1.26042      .   S
    O248   C609      1.26042      .   S
    O397   C577      1.25115      .   S
    O410   C590      1.25115      .   S
    O398   C578      1.25115      .   S
    O409   C589      1.25115      .   S
    C599   O272      1.26863      .   S
    C599   C479      1.46458      .   S
    C598   O271      1.26863      .   S
    C598   C478      1.46458      .   S
    C595   O79       1.26863      .   S
    C595   C475      1.46458      .   S
    C594   O78       1.26863      .   S
    C594   C474      1.46458      .   S
    N840   C474      1.37856      .   S
    N840   N975      1.33892      .   S
    N841   C475      1.37856      .   S
    N841   N976      1.33892      .   S
    N844   C478      1.37856      .   S
    N844   N979      1.33892      .   S
    N845   C479      1.37856      .   S
    N845   N980      1.33892      .   S
    C455   O308      1.24178      .   S
    C455   C515      1.49278      .   S
    C454   O307      1.24178      .   S
    C454   C514      1.49278      .   S
    C443   O296      1.24178      .   S
    C443   C503      1.49278      .   S
    C442   O295      1.24178      .   S
    C442   C502      1.49278      .   S
    O322   H337      0.99793      .   S
    O323   H338      0.99793      .   S
    O311   H326      0.99793      .   S
    O310   H325      0.99793      .   S
    C610   O189      1.25764      .   S
    C610   C735      1.41764      .   S
    C609   O188      1.25764      .   S
    C609   C734      1.41764      .   S
    C261   O192      1.25764      .   S
    C261   C738      1.41764      .   S
    C262   O193      1.25764      .   S
    C262   C739      1.41764      .   S
    C578   O428      1.25874      .   S
    C589   O439      1.25874      .   S
    C590   O440      1.25874      .   S
    C577   O427      1.25874      .   S
    C765   O460      1.28769      .   S
    C765   O343      1.28267      .   S
    C769   O464      1.28769  1_655   S
    C769   O347      1.28267      .   S
    C764   O459      1.28769      .   S
    C764   O342      1.28267      .   S
    C768   O463      1.28769  1_455   S
    C768   O346      1.28267      .   S
    N663   C738      1.41969      .   S
    N664   C739      1.41969      .   S
    N660   C735      1.41969      .   S
    N659   C734      1.41969      .   S
    H1034  C1019     0.95047      .   S
    H1045  C1030     0.95047      .   S
    H1033  C1018     0.95047      .   S
    H1046  C1031     0.95047      .   S
    H640   C625      0.95110      .   S
    H639   C624      0.95110      .   S
    H628   C613      0.95110      .   S
    H627   C270      0.95110      .   S
    C515   C1031     1.34858      .   S
    C514   C1030     1.34858      .   S
    C503   C1019     1.34858      .   S
    C502   C1018     1.34858      .   S
