# CIF file generated by openbabel 2.4.90, see http://openbabel.sf.net
data_I
_chemical_name_common ''
_cell_length_a 39.222
_cell_length_b 26.018
_cell_length_c 27.887
_cell_angle_alpha 90
_cell_angle_beta 90
_cell_angle_gamma 90
_space_group_name_H-M_alt 'P 1'
_space_group_name_Hall 'P 1'
loop_
    _symmetry_equiv_pos_as_xyz
    x,y,z
loop_
    _atom_site_label
    _atom_site_type_symbol
    _atom_site_fract_x
    _atom_site_fract_y
    _atom_site_fract_z
    _atom_site_occupancy
    Zr0     Zr   0.51253   0.19131   0.20101   1.000
    Zr1     Zr   0.23747   0.44131   0.95101   1.000
    Zr2     Zr   0.98690   0.30022   0.55889   1.000
    Zr3     Zr   0.93974   0.21879   0.63324   1.000
    Zr4     Zr   0.98664   0.31888   0.68418   1.000
    Zr5     Zr   0.01232   0.17290   0.57488   1.000
    Zr6     Zr   0.05965   0.27276   0.62667   1.000
    Zr7     Zr   0.01253   0.19131   0.70101   1.000
    Zr8     Zr   0.76232   0.57710   0.82488   1.000
    Zr9     Zr   0.73768   0.92290   0.82488   1.000
    Zr10    Zr   0.98747   0.80869   0.70101   1.000
    Zr11    Zr   0.26253   0.05869   0.95101   1.000
    Zr12    Zr   0.48747   0.80869   0.20101   1.000
    Zr13    Zr   0.76253   0.05869   0.45101   1.000
    Zr14    Zr   0.73747   0.44131   0.45101   1.000
    Zr15    Zr   0.01253   0.69131   0.20101   1.000
    Zr16    Zr   0.98747   0.30869   0.20101   1.000
    Zr17    Zr   0.26253   0.55869   0.45101   1.000
    Zr18    Zr   0.23747   0.94131   0.45101   1.000
    Zr19    Zr   0.51253   0.69131   0.70101   1.000
    Zr20    Zr   0.48747   0.30869   0.70101   1.000
    Zr21    Zr   0.76253   0.55869   0.95101   1.000
    Zr22    Zr   0.73747   0.94131   0.95101   1.000
    Zr23    Zr   0.01310   0.69978   0.55889   1.000
    Zr24    Zr   0.23690   0.94978   0.80889   1.000
    Zr25    Zr   0.26310   0.55022   0.80889   1.000
    Zr26    Zr   0.48690   0.30022   0.05889   1.000
    Zr27    Zr   0.51310   0.69978   0.05889   1.000
    Zr28    Zr   0.73690   0.94978   0.30889   1.000
    Zr29    Zr   0.76310   0.55022   0.30889   1.000
    Zr30    Zr   0.98690   0.80022   0.05889   1.000
    Zr31    Zr   0.01310   0.19978   0.05889   1.000
    Zr32    Zr   0.23690   0.44978   0.30889   1.000
    Zr33    Zr   0.26310   0.05022   0.30889   1.000
    Zr34    Zr   0.48690   0.80022   0.55889   1.000
    Zr35    Zr   0.51310   0.19978   0.55889   1.000
    Zr36    Zr   0.73690   0.44978   0.80889   1.000
    Zr37    Zr   0.76310   0.05022   0.80889   1.000
    Zr38    Zr   0.06026   0.78121   0.63324   1.000
    Zr39    Zr   0.18974   0.03121   0.88324   1.000
    Zr40    Zr   0.31026   0.46879   0.88324   1.000
    Zr41    Zr   0.43974   0.21879   0.13324   1.000
    Zr42    Zr   0.56026   0.78121   0.13324   1.000
    Zr43    Zr   0.68974   0.03121   0.38324   1.000
    Zr44    Zr   0.81026   0.46879   0.38324   1.000
    Zr45    Zr   0.93974   0.71879   0.13324   1.000
    Zr46    Zr   0.06026   0.28121   0.13324   1.000
    Zr47    Zr   0.18974   0.53121   0.38324   1.000
    Zr48    Zr   0.31026   0.96879   0.38324   1.000
    Zr49    Zr   0.43974   0.71879   0.63324   1.000
    Zr50    Zr   0.56026   0.28121   0.63324   1.000
    Zr51    Zr   0.68974   0.53121   0.88324   1.000
    Zr52    Zr   0.81026   0.96879   0.88324   1.000
    Zr53    Zr   0.01336   0.68112   0.68418   1.000
    Zr54    Zr   0.23664   0.93112   0.93418   1.000
    Zr55    Zr   0.26336   0.56888   0.93418   1.000
    Zr56    Zr   0.48664   0.31888   0.18418   1.000
    Zr57    Zr   0.51336   0.68112   0.18418   1.000
    Zr58    Zr   0.73664   0.93112   0.43418   1.000
    Zr59    Zr   0.76336   0.56888   0.43418   1.000
    Zr60    Zr   0.98664   0.81888   0.18418   1.000
    Zr61    Zr   0.01336   0.18112   0.18418   1.000
    Zr62    Zr   0.23664   0.43112   0.43418   1.000
    Zr63    Zr   0.26336   0.06888   0.43418   1.000
    Zr64    Zr   0.48664   0.81888   0.68418   1.000
    Zr65    Zr   0.51336   0.18112   0.68418   1.000
    Zr66    Zr   0.73664   0.43112   0.93418   1.000
    Zr67    Zr   0.76336   0.06888   0.93418   1.000
    Zr68    Zr   0.98768   0.82710   0.57488   1.000
    Zr69    Zr   0.26232   0.07710   0.82488   1.000
    Zr70    Zr   0.23768   0.42290   0.82488   1.000
    Zr71    Zr   0.51232   0.17290   0.07488   1.000
    Zr72    Zr   0.48768   0.82710   0.07488   1.000
    Zr73    Zr   0.76232   0.07710   0.32488   1.000
    Zr74    Zr   0.73768   0.42290   0.32488   1.000
    Zr75    Zr   0.01232   0.67290   0.07488   1.000
    Zr76    Zr   0.98768   0.32710   0.07488   1.000
    Zr77    Zr   0.26232   0.57710   0.32488   1.000
    Zr78    Zr   0.23768   0.92290   0.32488   1.000
    Zr79    Zr   0.51232   0.67290   0.57488   1.000
    Zr80    Zr   0.48768   0.32710   0.57488   1.000
    Zr81    Zr   0.94035   0.72724   0.62667   1.000
    Zr82    Zr   0.30965   0.97724   0.87667   1.000
    Zr83    Zr   0.19035   0.52276   0.87667   1.000
    Zr84    Zr   0.55965   0.27276   0.12667   1.000
    Zr85    Zr   0.44035   0.72724   0.12667   1.000
    Zr86    Zr   0.80965   0.97724   0.37667   1.000
    Zr87    Zr   0.69035   0.52276   0.37667   1.000
    Zr88    Zr   0.05965   0.77276   0.12667   1.000
    Zr89    Zr   0.94035   0.22724   0.12667   1.000
    Zr90    Zr   0.30965   0.47724   0.37667   1.000
    Zr91    Zr   0.19035   0.02276   0.37667   1.000
    Zr92    Zr   0.55965   0.77276   0.62667   1.000
    Zr93    Zr   0.44035   0.22724   0.62667   1.000
    Zr94    Zr   0.80965   0.47724   0.87667   1.000
    Zr95    Zr   0.69035   0.02276   0.87667   1.000
