# CIF file generated by openbabel 2.4.90, see http://openbabel.sf.net
data_I
_chemical_name_common ''
_cell_length_a 39.222
_cell_length_b 26.018
_cell_length_c 27.887
_cell_angle_alpha 90
_cell_angle_beta 90
_cell_angle_gamma 90
_space_group_name_H-M_alt 'P 1'
_space_group_name_Hall 'P 1'
loop_
    _symmetry_equiv_pos_as_xyz
    x,y,z
loop_
    _atom_site_label
    _atom_site_type_symbol
    _atom_site_fract_x
    _atom_site_fract_y
    _atom_site_fract_z
    _atom_site_occupancy
    Zr0     Zr   0.01253   0.19131   0.70101   1.000
    Zr1     Zr   0.98690   0.30022   0.55889   1.000
    Zr2     Zr   0.93974   0.21879   0.63324   1.000
    Zr3     Zr   0.98664   0.31888   0.68418   1.000
    Zr4     Zr   0.01232   0.17290   0.57488   1.000
    Zr5     Zr   0.05965   0.27276   0.62667   1.000
    Zr6     Zr   0.98747   0.80869   0.70101   1.000
    Zr7     Zr   0.26253   0.05869   0.95101   1.000
    Zr8     Zr   0.23747   0.44131   0.95101   1.000
    Zr9     Zr   0.51253   0.19131   0.20101   1.000
    Zr10    Zr   0.48747   0.80869   0.20101   1.000
    Zr11    Zr   0.76253   0.05869   0.45101   1.000
    Zr12    Zr   0.73747   0.44131   0.45101   1.000
    Zr13    Zr   0.01253   0.69131   0.20101   1.000
    Zr14    Zr   0.98747   0.30869   0.20101   1.000
    Zr15    Zr   0.26253   0.55869   0.45101   1.000
    Zr16    Zr   0.23747   0.94131   0.45101   1.000
    Zr17    Zr   0.51253   0.69131   0.70101   1.000
    Zr18    Zr   0.48747   0.30869   0.70101   1.000
    Zr19    Zr   0.76253   0.55869   0.95101   1.000
    Zr20    Zr   0.73747   0.94131   0.95101   1.000
    Zr21    Zr   0.01310   0.69978   0.55889   1.000
    Zr22    Zr   0.23690   0.94978   0.80889   1.000
    Zr23    Zr   0.26310   0.55022   0.80889   1.000
    Zr24    Zr   0.48690   0.30022   0.05889   1.000
    Zr25    Zr   0.51310   0.69978   0.05889   1.000
    Zr26    Zr   0.73690   0.94978   0.30889   1.000
    Zr27    Zr   0.76310   0.55022   0.30889   1.000
    Zr28    Zr   0.98690   0.80022   0.05889   1.000
    Zr29    Zr   0.01310   0.19978   0.05889   1.000
    Zr30    Zr   0.23690   0.44978   0.30889   1.000
    Zr31    Zr   0.26310   0.05022   0.30889   1.000
    Zr32    Zr   0.48690   0.80022   0.55889   1.000
    Zr33    Zr   0.51310   0.19978   0.55889   1.000
    Zr34    Zr   0.73690   0.44978   0.80889   1.000
    Zr35    Zr   0.76310   0.05022   0.80889   1.000
    Zr36    Zr   0.06026   0.78121   0.63324   1.000
    Zr37    Zr   0.18974   0.03121   0.88324   1.000
    Zr38    Zr   0.31026   0.46879   0.88324   1.000
    Zr39    Zr   0.43974   0.21879   0.13324   1.000
    Zr40    Zr   0.56026   0.78121   0.13324   1.000
    Zr41    Zr   0.68974   0.03121   0.38324   1.000
    Zr42    Zr   0.81026   0.46879   0.38324   1.000
    Zr43    Zr   0.93974   0.71879   0.13324   1.000
    Zr44    Zr   0.06026   0.28121   0.13324   1.000
    Zr45    Zr   0.18974   0.53121   0.38324   1.000
    Zr46    Zr   0.31026   0.96879   0.38324   1.000
    Zr47    Zr   0.43974   0.71879   0.63324   1.000
    Zr48    Zr   0.56026   0.28121   0.63324   1.000
    Zr49    Zr   0.68974   0.53121   0.88324   1.000
    Zr50    Zr   0.81026   0.96879   0.88324   1.000
    Zr51    Zr   0.01336   0.68112   0.68418   1.000
    Zr52    Zr   0.23664   0.93112   0.93418   1.000
    Zr53    Zr   0.26336   0.56888   0.93418   1.000
    Zr54    Zr   0.48664   0.31888   0.18418   1.000
    Zr55    Zr   0.51336   0.68112   0.18418   1.000
    Zr56    Zr   0.73664   0.93112   0.43418   1.000
    Zr57    Zr   0.76336   0.56888   0.43418   1.000
    Zr58    Zr   0.98664   0.81888   0.18418   1.000
    Zr59    Zr   0.01336   0.18112   0.18418   1.000
    Zr60    Zr   0.23664   0.43112   0.43418   1.000
    Zr61    Zr   0.26336   0.06888   0.43418   1.000
    Zr62    Zr   0.48664   0.81888   0.68418   1.000
    Zr63    Zr   0.51336   0.18112   0.68418   1.000
    Zr64    Zr   0.73664   0.43112   0.93418   1.000
    Zr65    Zr   0.76336   0.06888   0.93418   1.000
    Zr66    Zr   0.98768   0.82710   0.57488   1.000
    Zr67    Zr   0.26232   0.07710   0.82488   1.000
    Zr68    Zr   0.23768   0.42290   0.82488   1.000
    Zr69    Zr   0.51232   0.17290   0.07488   1.000
    Zr70    Zr   0.48768   0.82710   0.07488   1.000
    Zr71    Zr   0.76232   0.07710   0.32488   1.000
    Zr72    Zr   0.73768   0.42290   0.32488   1.000
    Zr73    Zr   0.01232   0.67290   0.07488   1.000
    Zr74    Zr   0.98768   0.32710   0.07488   1.000
    Zr75    Zr   0.26232   0.57710   0.32488   1.000
    Zr76    Zr   0.23768   0.92290   0.32488   1.000
    Zr77    Zr   0.51232   0.67290   0.57488   1.000
    Zr78    Zr   0.48768   0.32710   0.57488   1.000
    Zr79    Zr   0.76232   0.57710   0.82488   1.000
    Zr80    Zr   0.73768   0.92290   0.82488   1.000
    Zr81    Zr   0.94035   0.72724   0.62667   1.000
    Zr82    Zr   0.30965   0.97724   0.87667   1.000
    Zr83    Zr   0.19035   0.52276   0.87667   1.000
    Zr84    Zr   0.55965   0.27276   0.12667   1.000
    Zr85    Zr   0.44035   0.72724   0.12667   1.000
    Zr86    Zr   0.80965   0.97724   0.37667   1.000
    Zr87    Zr   0.69035   0.52276   0.37667   1.000
    Zr88    Zr   0.05965   0.77276   0.12667   1.000
    Zr89    Zr   0.94035   0.22724   0.12667   1.000
    Zr90    Zr   0.30965   0.47724   0.37667   1.000
    Zr91    Zr   0.19035   0.02276   0.37667   1.000
    Zr92    Zr   0.55965   0.77276   0.62667   1.000
    Zr93    Zr   0.44035   0.22724   0.62667   1.000
    Zr94    Zr   0.80965   0.47724   0.87667   1.000
    Zr95    Zr   0.69035   0.02276   0.87667   1.000
    N96     N    0.60811   0.42521   0.51406   1.000
    O97     O    0.65933   0.43471   0.49036   1.000
    O98     O    0.55887   0.38968   0.54025   1.000
    O99     O    0.58878   0.37026   0.56376   1.000
    O100    O    0.63985   0.46677   0.45857   1.000
    N101    N    0.75090   0.52901   0.62957   1.000
    O102    O    0.75609   0.54677   0.55120   1.000
    O103    O    0.74528   0.49775   0.70068   1.000
    O104    O    0.74524   0.49416   0.55874   1.000
    O105    O    0.75569   0.55095   0.70765   1.000
    N106    N    0.47856   0.64730   0.11640   1.000
    O107    O    0.48825   0.66028   0.13392   1.000
    O108    O    0.48818   0.66495   0.10260   1.000
    O109    O    0.46999   0.67181   0.11954   1.000
    N110    N    0.39189   0.57479   0.51406   1.000
    O111    O    0.34067   0.56529   0.49036   1.000
    O112    O    0.41122   0.62974   0.56376   1.000
    O113    O    0.44113   0.61032   0.54025   1.000
    O114    O    0.36015   0.53323   0.45857   1.000
    N115    N    0.39379   0.08633   0.26298   1.000
    O116    O    0.36153   0.03574   0.31048   1.000
    O117    O    0.41244   0.13864   0.21168   1.000
    O118    O    0.34214   0.06929   0.27979   1.000
    O119    O    0.44239   0.12699   0.23947   1.000
    N120    N    0.85621   0.33632   0.51298   1.000
    O121    O    0.90786   0.31929   0.52979   1.000
    O122    O    0.83756   0.38864   0.46168   1.000
    O123    O    0.88847   0.28573   0.56048   1.000
    O124    O    0.80761   0.37699   0.48947   1.000
    N125    N    0.60621   0.41368   0.76298   1.000
    O126    O    0.63847   0.46426   0.81048   1.000
    O127    O    0.65786   0.43071   0.77979   1.000
    O128    O    0.58756   0.36137   0.71168   1.000
    O129    O    0.55761   0.37301   0.73947   1.000
    N130    N    0.89189   0.07479   0.51406   1.000
    O131    O    0.94113   0.11032   0.54025   1.000
    O132    O    0.84067   0.06529   0.49036   1.000
    O133    O    0.91122   0.12974   0.56376   1.000
    O134    O    0.86015   0.03323   0.45857   1.000
    N135    N    0.85659   0.85293   0.23941   1.000
    O136    O    0.83758   0.90180   0.29390   1.000
    O137    O    0.88878   0.79719   0.19679   1.000
    O138    O    0.90805   0.83876   0.21760   1.000
    O139    O    0.80778   0.89143   0.26528   1.000
    N140    N    0.35811   0.32479   0.76406   1.000
    O141    O    0.40933   0.31529   0.74036   1.000
    O142    O    0.30887   0.36032   0.79025   1.000
    O143    O    0.38985   0.28323   0.70857   1.000
    O144    O    0.33878   0.37974   0.81376   1.000
    N145    N    0.64341   0.64708   0.23941   1.000
    O146    O    0.61123   0.70281   0.19679   1.000
    O147    O    0.66242   0.59820   0.29390   1.000
    O148    O    0.59195   0.66124   0.21760   1.000
    O149    O    0.69223   0.60857   0.26528   1.000
    N150    N    0.14341   0.14707   0.23941   1.000
    O151    O    0.11122   0.20282   0.19679   1.000
    O152    O    0.09195   0.16124   0.21760   1.000
    O153    O    0.19223   0.10857   0.26528   1.000
    O154    O    0.16242   0.09820   0.29390   1.000
    N155    N    0.27144   0.39730   0.36640   1.000
    O156    O    0.26182   0.41495   0.35260   1.000
    O157    O    0.28001   0.42181   0.36954   1.000
    O158    O    0.26176   0.41028   0.38392   1.000
    N159    N    0.60811   0.92521   0.01406   1.000
    O160    O    0.55887   0.88968   0.04025   1.000
    O161    O    0.65933   0.93471   0.99036   1.000
    O162    O    0.63985   0.96677   0.95857   1.000
    O163    O    0.58878   0.87026   0.06376   1.000
    N164    N    0.85814   0.34203   0.00343   1.000
    O165    O    0.88980   0.29510   0.05448   1.000
    O166    O    0.83860   0.39308   0.95041   1.000
    O167    O    0.90929   0.33459   0.03113   1.000
    O168    O    0.80881   0.37485   0.97526   1.000
    N169    N    0.97856   0.64730   0.61640   1.000
    O170    O    0.98818   0.66495   0.60260   1.000
    O171    O    0.96999   0.67181   0.61954   1.000
    O172    O    0.98825   0.66028   0.63392   1.000
    N173    N    0.64186   0.65797   0.50343   1.000
    O174    O    0.61020   0.70490   0.55448   1.000
    O175    O    0.66140   0.60692   0.45041   1.000
    O176    O    0.69119   0.62515   0.47526   1.000
    O177    O    0.59071   0.66541   0.53113   1.000
    N178    N    0.89379   0.08632   0.76298   1.000
    O179    O    0.84214   0.06929   0.77979   1.000
    O180    O    0.86153   0.03574   0.81048   1.000
    O181    O    0.94239   0.12699   0.73947   1.000
    O182    O    0.91244   0.13863   0.71168   1.000
    N183    N    0.14341   0.64708   0.73941   1.000
    O184    O    0.11123   0.70281   0.69679   1.000
    O185    O    0.16242   0.59820   0.79390   1.000
    O186    O    0.09195   0.66124   0.71760   1.000
    O187    O    0.19223   0.60857   0.76528   1.000
    N188    N    0.71218   0.95980   0.37420   1.000
    O189    O    0.70657   0.97765   0.37646   1.000
    O190    O    0.71836   0.95730   0.35787   1.000
    O191    O    0.71830   0.95263   0.38920   1.000
    N192    N    0.22856   0.60270   0.86640   1.000
    O193    O    0.23825   0.58972   0.88392   1.000
    O194    O    0.23818   0.58505   0.85260   1.000
    O195    O    0.21999   0.57819   0.86954   1.000
    N196    N    0.64379   0.16368   0.51298   1.000
    O197    O    0.59214   0.18071   0.52979   1.000
    O198    O    0.69239   0.12301   0.48947   1.000
    O199    O    0.66244   0.11137   0.46168   1.000
    O200    O    0.61153   0.21427   0.56048   1.000
    N201    N    0.64186   0.15797   0.00343   1.000
    O202    O    0.61020   0.20490   0.05448   1.000
    O203    O    0.69119   0.12515   0.97526   1.000
    O204    O    0.66140   0.10692   0.95041   1.000
    O205    O    0.59071   0.16541   0.03113   1.000
    N206    N    0.35814   0.84203   0.00343   1.000
    O207    O    0.33861   0.89308   0.95041   1.000
    O208    O    0.38980   0.79510   0.05448   1.000
    O209    O    0.30881   0.87485   0.97526   1.000
    O210    O    0.40929   0.83459   0.03113   1.000
    N211    N    0.64189   0.67521   0.76406   1.000
    O212    O    0.61015   0.71677   0.70857   1.000
    O213    O    0.69113   0.63968   0.79025   1.000
    O214    O    0.66122   0.62026   0.81376   1.000
    O215    O    0.59067   0.68471   0.74036   1.000
    N216    N    0.24910   0.97099   0.12957   1.000
    O217    O    0.25472   0.00225   0.20068   1.000
    O218    O    0.24431   0.94905   0.20765   1.000
    O219    O    0.24391   0.95323   0.05120   1.000
    O220    O    0.25476   0.00584   0.05874   1.000
    N221    N    0.39186   0.09203   0.75343   1.000
    O222    O    0.44119   0.12485   0.72526   1.000
    O223    O    0.36020   0.04510   0.80448   1.000
    O224    O    0.41139   0.14308   0.70041   1.000
    O225    O    0.34071   0.08459   0.78113   1.000
    N226    N    0.35659   0.35292   0.23941   1.000
    O227    O    0.30778   0.39143   0.26528   1.000
    O228    O    0.40805   0.33876   0.21760   1.000
    O229    O    0.33758   0.40180   0.29390   1.000
    O230    O    0.38878   0.29718   0.19679   1.000
    N231    N    0.97856   0.14730   0.11640   1.000
    O232    O    0.98818   0.16495   0.10260   1.000
    O233    O    0.96999   0.17181   0.11954   1.000
    O234    O    0.98825   0.16028   0.13392   1.000
    N235    N    0.89186   0.59203   0.75343   1.000
    O236    O    0.84071   0.58459   0.78113   1.000
    O237    O    0.86020   0.54510   0.80448   1.000
    O238    O    0.94119   0.62485   0.72526   1.000
    O239    O    0.91140   0.64308   0.70041   1.000
    N240    N    0.99910   0.77901   0.37957   1.000
    O241    O    0.99391   0.79677   0.30120   1.000
    O242    O    0.99431   0.80095   0.45765   1.000
    O243    O    0.00472   0.74775   0.45068   1.000
    O244    O    0.00476   0.74416   0.30874   1.000
    N245    N    0.89341   0.10293   0.98941   1.000
    O246    O    0.86122   0.04718   0.94679   1.000
    O247    O    0.91242   0.15180   0.04390   1.000
    O248    O    0.94223   0.14143   0.01528   1.000
    O249    O    0.84195   0.08876   0.96760   1.000
    N250    N    0.89186   0.09203   0.25343   1.000
    O251    O    0.84071   0.08459   0.28113   1.000
    O252    O    0.94119   0.12485   0.22526   1.000
    O253    O    0.86020   0.04510   0.30448   1.000
    O254    O    0.91140   0.14308   0.20041   1.000
    N255    N    0.47856   0.14730   0.61640   1.000
    O256    O    0.48818   0.16495   0.60260   1.000
    O257    O    0.46999   0.17181   0.61954   1.000
    O258    O    0.48824   0.16028   0.63392   1.000
    N259    N    0.64379   0.66368   0.01298   1.000
    O260    O    0.59214   0.68071   0.02979   1.000
    O261    O    0.66244   0.61136   0.96168   1.000
    O262    O    0.61153   0.71427   0.06048   1.000
    O263    O    0.69239   0.62301   0.98947   1.000
    N264    N    0.85811   0.82479   0.76406   1.000
    O265    O    0.88985   0.78323   0.70857   1.000
    O266    O    0.83878   0.87974   0.81376   1.000
    O267    O    0.90933   0.81529   0.74036   1.000
    O268    O    0.80887   0.86032   0.79025   1.000
    N269    N    0.25090   0.52901   0.12957   1.000
    O270    O    0.24524   0.49416   0.05874   1.000
    O271    O    0.25609   0.54677   0.05120   1.000
    O272    O    0.24528   0.49775   0.20068   1.000
    O273    O    0.25569   0.55095   0.20765   1.000
    N274    N    0.39379   0.58633   0.76298   1.000
    O275    O    0.44239   0.62699   0.73947   1.000
    O276    O    0.36153   0.53574   0.81048   1.000
    O277    O    0.41244   0.63864   0.71168   1.000
    O278    O    0.34214   0.56929   0.77979   1.000
    N279    N    0.75090   0.02901   0.12957   1.000
    O280    O    0.75609   0.04677   0.05120   1.000
    O281    O    0.75569   0.05095   0.20765   1.000
    O282    O    0.74528   0.99775   0.20068   1.000
    O283    O    0.74524   0.99416   0.05874   1.000
    N284    N    0.14379   0.16367   0.01298   1.000
    O285    O    0.09214   0.18071   0.02979   1.000
    O286    O    0.11153   0.21427   0.06048   1.000
    O287    O    0.19239   0.12301   0.98947   1.000
    O288    O    0.16244   0.11136   0.96168   1.000
    N289    N    0.10814   0.90797   0.25343   1.000
    O290    O    0.05881   0.87515   0.22526   1.000
    O291    O    0.13980   0.95490   0.30448   1.000
    O292    O    0.08861   0.85692   0.20041   1.000
    O293    O    0.15929   0.91541   0.28113   1.000
    N294    N    0.44267   0.82640   0.13855   1.000
    O295    O    0.45641   0.82360   0.12227   1.000
    O296    O    0.45636   0.81900   0.15380   1.000
    O297    O    0.44458   0.79864   0.13522   1.000
    N298    N    0.39189   0.07479   0.01406   1.000
    O299    O    0.34067   0.06529   0.99036   1.000
    O300    O    0.44113   0.11032   0.04025   1.000
    O301    O    0.41122   0.12974   0.06376   1.000
    O302    O    0.36015   0.03323   0.95857   1.000
    N303    N    0.60814   0.90797   0.75343   1.000
    O304    O    0.58860   0.85692   0.70041   1.000
    O305    O    0.63980   0.95490   0.80448   1.000
    O306    O    0.55881   0.87515   0.72526   1.000
    O307    O    0.65929   0.91541   0.78113   1.000
    N308    N    0.60621   0.91368   0.26298   1.000
    O309    O    0.65786   0.93071   0.27979   1.000
    O310    O    0.58756   0.86137   0.21168   1.000
    O311    O    0.63847   0.96426   0.31048   1.000
    O312    O    0.55761   0.87301   0.23947   1.000
    N313    N    0.55734   0.67360   0.63855   1.000
    O314    O    0.54359   0.67640   0.62227   1.000
    O315    O    0.54364   0.68100   0.65380   1.000
    O316    O    0.55542   0.70136   0.63522   1.000
    N317    N    0.24910   0.47099   0.62957   1.000
    O318    O    0.24391   0.45323   0.55120   1.000
    O319    O    0.25472   0.50225   0.70068   1.000
    O320    O    0.24431   0.44905   0.70765   1.000
    O321    O    0.25476   0.50584   0.55874   1.000
    N322    N    0.89341   0.60292   0.48941   1.000
    O323    O    0.94223   0.64143   0.51528   1.000
    O324    O    0.84195   0.58876   0.46760   1.000
    O325    O    0.91242   0.65180   0.54390   1.000
    O326    O    0.86122   0.54719   0.44679   1.000
    N327    N    0.74910   0.97099   0.62957   1.000
    O328    O    0.75476   0.00584   0.55874   1.000
    O329    O    0.74431   0.94905   0.70765   1.000
    O330    O    0.74391   0.95323   0.55120   1.000
    O331    O    0.75472   0.00225   0.70068   1.000
    N332    N    0.64341   0.14707   0.73941   1.000
    O333    O    0.66242   0.09820   0.79390   1.000
    O334    O    0.59195   0.16124   0.71760   1.000
    O335    O    0.61123   0.20281   0.69679   1.000
    O336    O    0.69223   0.10857   0.76528   1.000
    N337    N    0.20881   0.50995   0.46660   1.000
    O338    O    0.21755   0.48998   0.45480   1.000
    O339    O    0.22402   0.52187   0.45900   1.000
    O340    O    0.20582   0.51500   0.44206   1.000
    N341    N    0.85659   0.35292   0.73941   1.000
    O342    O    0.80778   0.39143   0.76528   1.000
    O343    O    0.83758   0.40180   0.79390   1.000
    O344    O    0.88878   0.29718   0.69679   1.000
    O345    O    0.90805   0.33876   0.71760   1.000
    N346    N    0.60814   0.40797   0.25343   1.000
    O347    O    0.55881   0.37515   0.22526   1.000
    O348    O    0.63980   0.45490   0.30448   1.000
    O349    O    0.65929   0.41541   0.28113   1.000
    O350    O    0.58861   0.35692   0.20041   1.000
    N351    N    0.49910   0.27901   0.37957   1.000
    O352    O    0.49391   0.29677   0.30120   1.000
    O353    O    0.50472   0.24775   0.45068   1.000
    O354    O    0.50476   0.24416   0.30874   1.000
    O355    O    0.49431   0.30095   0.45765   1.000
    N356    N    0.50090   0.72099   0.37957   1.000
    O357    O    0.50569   0.69905   0.45765   1.000
    O358    O    0.49524   0.75584   0.30874   1.000
    O359    O    0.50609   0.70323   0.30120   1.000
    O360    O    0.49528   0.75225   0.45068   1.000
    N361    N    0.14189   0.67521   0.26406   1.000
    O362    O    0.16122   0.62026   0.31376   1.000
    O363    O    0.19113   0.63968   0.29025   1.000
    O364    O    0.11015   0.71677   0.20857   1.000
    O365    O    0.09067   0.68471   0.24036   1.000
    N366    N    0.35811   0.82479   0.26406   1.000
    O367    O    0.30887   0.86032   0.29025   1.000
    O368    O    0.40933   0.81529   0.24036   1.000
    O369    O    0.33878   0.87974   0.31376   1.000
    O370    O    0.38985   0.78323   0.20857   1.000
    N371    N    0.39186   0.59203   0.25343   1.000
    O372    O    0.44119   0.62485   0.22526   1.000
    O373    O    0.36020   0.54510   0.30448   1.000
    O374    O    0.41140   0.64308   0.20041   1.000
    O375    O    0.34071   0.58459   0.28113   1.000
    N376    N    0.50090   0.22099   0.87957   1.000
    O377    O    0.50609   0.20323   0.80120   1.000
    O378    O    0.49528   0.25225   0.95068   1.000
    O379    O    0.50569   0.19905   0.95765   1.000
    O380    O    0.49524   0.25584   0.80874   1.000
    N381    N    0.74910   0.47099   0.12957   1.000
    O382    O    0.74391   0.45323   0.05120   1.000
    O383    O    0.75472   0.50225   0.20068   1.000
    O384    O    0.75476   0.50584   0.05874   1.000
    O385    O    0.74431   0.44905   0.20765   1.000
    N386    N    0.64189   0.17521   0.26406   1.000
    O387    O    0.69113   0.13968   0.29025   1.000
    O388    O    0.66122   0.12026   0.31376   1.000
    O389    O    0.59067   0.18471   0.24036   1.000
    O390    O    0.61015   0.21677   0.20857   1.000
    N391    N    0.79143   0.46550   0.29745   1.000
    O392    O    0.78256   0.48798   0.30382   1.000
    O393    O    0.79435   0.46762   0.32241   1.000
    O394    O    0.77621   0.45615   0.30782   1.000
    N395    N    0.52540   0.26480   0.18120   1.000
    O396    O    0.53396   0.26679   0.16757   1.000
    O397    O    0.52218   0.24643   0.18615   1.000
    O398    O    0.51571   0.27832   0.18195   1.000
    N399    N    0.85814   0.84203   0.50343   1.000
    O400    O    0.80881   0.87485   0.47526   1.000
    O401    O    0.88980   0.79510   0.55448   1.000
    O402    O    0.90929   0.83459   0.53113   1.000
    O403    O    0.83861   0.89308   0.45041   1.000
    N404    N    0.48509   0.67840   0.63840   1.000
    O405    O    0.47375   0.68850   0.63711   1.000
    O406    O    0.49195   0.68163   0.65405   1.000
    O407    O    0.49190   0.67702   0.62252   1.000
    N408    N    0.49910   0.77901   0.87957   1.000
    O409    O    0.50472   0.74775   0.95068   1.000
    O410    O    0.49391   0.79677   0.80120   1.000
    O411    O    0.50476   0.74416   0.80874   1.000
    O412    O    0.49431   0.80095   0.95765   1.000
    N413    N    0.95857   0.21550   0.54745   1.000
    O414    O    0.96744   0.23798   0.55382   1.000
    O415    O    0.95565   0.21762   0.57241   1.000
    O416    O    0.97380   0.20615   0.55782   1.000
    N417    N    0.54144   0.28450   0.54745   1.000
    O418    O    0.53256   0.26202   0.55382   1.000
    O419    O    0.54435   0.28238   0.57241   1.000
    O420    O    0.52621   0.29385   0.55782   1.000
    N421    N    0.04143   0.78450   0.54745   1.000
    O422    O    0.03256   0.76202   0.55382   1.000
    O423    O    0.04435   0.78238   0.57241   1.000
    O424    O    0.02621   0.79385   0.55782   1.000
    N425    N    0.54144   0.78450   0.04745   1.000
    O426    O    0.53256   0.76202   0.05382   1.000
    O427    O    0.54435   0.78238   0.07241   1.000
    O428    O    0.52621   0.79385   0.05782   1.000
    N429    N    0.22492   0.50010   0.82660   1.000
    O430    O    0.23447   0.51263   0.82217   1.000
    O431    O    0.21628   0.50577   0.83912   1.000
    O432    O    0.22811   0.48080   0.82617   1.000
    N433    N    0.39341   0.10292   0.48941   1.000
    O434    O    0.34195   0.08876   0.46760   1.000
    O435    O    0.36123   0.04719   0.44679   1.000
    O436    O    0.44222   0.14143   0.51528   1.000
    O437    O    0.41242   0.15180   0.54390   1.000
    N438    N    0.10811   0.92521   0.51406   1.000
    O439    O    0.05887   0.88968   0.54025   1.000
    O440    O    0.15933   0.93471   0.49036   1.000
    O441    O    0.13985   0.96677   0.45857   1.000
    O442    O    0.08878   0.87026   0.56376   1.000
    N443    N    0.10659   0.39707   0.48941   1.000
    O444    O    0.05778   0.35857   0.51528   1.000
    O445    O    0.13878   0.45281   0.44679   1.000
    O446    O    0.15805   0.41124   0.46760   1.000
    O447    O    0.08758   0.34820   0.54390   1.000
    N448    N    0.30734   0.57640   0.38855   1.000
    O449    O    0.29359   0.57360   0.37227   1.000
    O450    O    0.29364   0.56900   0.40380   1.000
    O451    O    0.30542   0.54864   0.38522   1.000
    N452    N    0.10621   0.41367   0.26298   1.000
    O453    O    0.13847   0.46426   0.31048   1.000
    O454    O    0.05761   0.37301   0.23947   1.000
    O455    O    0.08756   0.36136   0.21168   1.000
    O456    O    0.15786   0.43071   0.27979   1.000
    N457    N    0.89189   0.57479   0.01406   1.000
    O458    O    0.94113   0.61032   0.04025   1.000
    O459    O    0.84067   0.56529   0.99036   1.000
    O460    O    0.91122   0.62974   0.06376   1.000
    O461    O    0.86015   0.53323   0.95857   1.000
    N462    N    0.00090   0.72099   0.87957   1.000
    O463    O    0.00609   0.70323   0.80120   1.000
    O464    O    0.99528   0.75225   0.95068   1.000
    O465    O    0.00569   0.69905   0.95765   1.000
    O466    O    0.99524   0.75584   0.80874   1.000
    N467    N    0.10811   0.42521   0.01406   1.000
    O468    O    0.08878   0.37026   0.06376   1.000
    O469    O    0.05887   0.38968   0.04025   1.000
    O470    O    0.15933   0.43471   0.99036   1.000
    O471    O    0.13985   0.46677   0.95857   1.000
    N472    N    0.85811   0.32479   0.26406   1.000
    O473    O    0.80887   0.36032   0.29025   1.000
    O474    O    0.83878   0.37974   0.31376   1.000
    O475    O    0.90933   0.31529   0.24036   1.000
    O476    O    0.88985   0.28323   0.20857   1.000
    N477    N    0.35621   0.83633   0.51298   1.000
    O478    O    0.38847   0.78573   0.56048   1.000
    O479    O    0.40786   0.81929   0.52979   1.000
    O480    O    0.33756   0.88864   0.46168   1.000
    O481    O    0.30761   0.87699   0.48947   1.000
    N482    N    0.77145   0.89730   0.36640   1.000
    O483    O    0.76182   0.91495   0.35260   1.000
    O484    O    0.78001   0.92181   0.36954   1.000
    O485    O    0.76176   0.91028   0.38392   1.000
    N486    N    0.35621   0.33632   0.01298   1.000
    O487    O    0.38847   0.28573   0.06048   1.000
    O488    O    0.40786   0.31929   0.02979   1.000
    O489    O    0.30761   0.37699   0.98947   1.000
    O490    O    0.33756   0.38864   0.96168   1.000
    N491    N    0.45857   0.21550   0.04745   1.000
    O492    O    0.46744   0.23798   0.05382   1.000
    O493    O    0.45565   0.21762   0.07241   1.000
    O494    O    0.47380   0.20615   0.05782   1.000
    N495    N    0.95856   0.71550   0.04745   1.000
    O496    O    0.96744   0.73798   0.05382   1.000
    O497    O    0.95565   0.71762   0.07241   1.000
    O498    O    0.97380   0.70615   0.05782   1.000
    N499    N    0.39341   0.60292   0.98941   1.000
    O500    O    0.36123   0.54718   0.94679   1.000
    O501    O    0.34195   0.58876   0.96760   1.000
    O502    O    0.44223   0.64143   0.01528   1.000
    O503    O    0.41242   0.65180   0.04390   1.000
    N504    N    0.14186   0.65797   0.00343   1.000
    O505    O    0.16140   0.60692   0.95041   1.000
    O506    O    0.11020   0.70490   0.05448   1.000
    O507    O    0.09071   0.66541   0.03113   1.000
    O508    O    0.19119   0.62515   0.97526   1.000
    N509    N    0.04143   0.28450   0.04745   1.000
    O510    O    0.03256   0.26202   0.05382   1.000
    O511    O    0.04435   0.28238   0.07241   1.000
    O512    O    0.02621   0.29385   0.05782   1.000
    N513    N    0.02508   0.25010   0.57660   1.000
    O514    O    0.01554   0.26263   0.57217   1.000
    O515    O    0.02189   0.23080   0.57617   1.000
    O516    O    0.03372   0.25576   0.58912   1.000
    N517    N    0.72856   0.60270   0.36640   1.000
    O518    O    0.73818   0.58505   0.35260   1.000
    O519    O    0.71999   0.57819   0.36954   1.000
    O520    O    0.73825   0.58972   0.38392   1.000
    N521    N    0.20857   0.53450   0.29745   1.000
    O522    O    0.21744   0.51202   0.30382   1.000
    O523    O    0.20565   0.53238   0.32241   1.000
    O524    O    0.22379   0.54385   0.30782   1.000
    N525    N    0.72856   0.10270   0.86640   1.000
    O526    O    0.73825   0.08972   0.88392   1.000
    O527    O    0.73818   0.08505   0.85260   1.000
    O528    O    0.71999   0.07819   0.86954   1.000
    N529    N    0.23509   0.57160   0.38840   1.000
    O530    O    0.22375   0.56150   0.38711   1.000
    O531    O    0.24195   0.56837   0.40405   1.000
    O532    O    0.24190   0.57298   0.37252   1.000
    N533    N    0.00090   0.22099   0.37957   1.000
    O534    O    0.99524   0.25584   0.30874   1.000
    O535    O    0.00609   0.20323   0.30120   1.000
    O536    O    0.99528   0.25225   0.45068   1.000
    O537    O    0.00569   0.19905   0.45765   1.000
    N538    N    0.29144   0.96550   0.29745   1.000
    O539    O    0.28256   0.98798   0.30382   1.000
    O540    O    0.29435   0.96762   0.32241   1.000
    O541    O    0.27621   0.95615   0.30782   1.000
    N542    N    0.99910   0.27901   0.87957   1.000
    O543    O    0.00472   0.24775   0.95068   1.000
    O544    O    0.00476   0.24416   0.80874   1.000
    O545    O    0.99391   0.29677   0.80120   1.000
    O546    O    0.99431   0.30095   0.95765   1.000
    N547    N    0.45856   0.71550   0.54745   1.000
    O548    O    0.46744   0.73798   0.55382   1.000
    O549    O    0.45565   0.71762   0.57241   1.000
    O550    O    0.47379   0.70615   0.55782   1.000
    N551    N    0.10814   0.40797   0.75343   1.000
    O552    O    0.15929   0.41541   0.78113   1.000
    O553    O    0.13980   0.45490   0.80448   1.000
    O554    O    0.08861   0.35692   0.70041   1.000
    O555    O    0.05881   0.37515   0.72526   1.000
    N556    N    0.53782   0.70980   0.12420   1.000
    O557    O    0.54343   0.72765   0.12646   1.000
    O558    O    0.53164   0.70729   0.10787   1.000
    O559    O    0.53171   0.70263   0.13920   1.000
    N560    N    0.60659   0.39707   0.98941   1.000
    O561    O    0.55778   0.35857   0.01528   1.000
    O562    O    0.63878   0.45281   0.94679   1.000
    O563    O    0.58758   0.34820   0.04390   1.000
    O564    O    0.65805   0.41124   0.96760   1.000
    N565    N    0.02540   0.76480   0.18120   1.000
    O566    O    0.03396   0.76679   0.16757   1.000
    O567    O    0.02218   0.74643   0.18615   1.000
    O568    O    0.01571   0.77832   0.18195   1.000
    N569    N    0.10659   0.89707   0.98941   1.000
    O570    O    0.15805   0.91124   0.96760   1.000
    O571    O    0.13878   0.95281   0.94679   1.000
    O572    O    0.05778   0.85857   0.01528   1.000
    O573    O    0.08758   0.84820   0.04390   1.000
    N574    N    0.22855   0.10270   0.36640   1.000
    O575    O    0.23824   0.08972   0.38392   1.000
    O576    O    0.23818   0.08505   0.35260   1.000
    O577    O    0.21999   0.07819   0.36954   1.000
    N578    N    0.02540   0.26480   0.68120   1.000
    O579    O    0.01571   0.27832   0.68195   1.000
    O580    O    0.02218   0.24643   0.68615   1.000
    O581    O    0.03396   0.26679   0.66757   1.000
    N582    N    0.35659   0.85293   0.73941   1.000
    O583    O    0.33758   0.90180   0.79390   1.000
    O584    O    0.30777   0.89143   0.76528   1.000
    O585    O    0.40805   0.83876   0.71760   1.000
    O586    O    0.38877   0.79719   0.69679   1.000
    N587    N    0.45881   0.24005   0.21660   1.000
    O588    O    0.46755   0.26002   0.20480   1.000
    O589    O    0.47402   0.22813   0.20900   1.000
    O590    O    0.45583   0.23500   0.19206   1.000
    N591    N    0.80734   0.57640   0.88855   1.000
    O592    O    0.79359   0.57360   0.87227   1.000
    O593    O    0.79364   0.56900   0.90380   1.000
    O594    O    0.80542   0.54863   0.88522   1.000
    N595    N    0.70857   0.53450   0.79745   1.000
    O596    O    0.71744   0.51202   0.80382   1.000
    O597    O    0.70565   0.53238   0.82241   1.000
    O598    O    0.72380   0.54385   0.80782   1.000
    N599    N    0.89379   0.58633   0.26298   1.000
    O600    O    0.84214   0.56929   0.27979   1.000
    O601    O    0.94239   0.62699   0.23947   1.000
    O602    O    0.86153   0.53574   0.31048   1.000
    O603    O    0.91244   0.63864   0.21168   1.000
    N604    N    0.79143   0.96550   0.79745   1.000
    O605    O    0.78256   0.98798   0.80382   1.000
    O606    O    0.79435   0.96762   0.82241   1.000
    O607    O    0.77621   0.95615   0.80782   1.000
    N608    N    0.97492   0.74990   0.57660   1.000
    O609    O    0.98447   0.73737   0.57217   1.000
    O610    O    0.96628   0.74423   0.58912   1.000
    O611    O    0.97811   0.76920   0.57617   1.000
    N612    N    0.35814   0.34203   0.50343   1.000
    O613    O    0.30881   0.37485   0.47526   1.000
    O614    O    0.33861   0.39308   0.45041   1.000
    O615    O    0.40929   0.33459   0.53113   1.000
    O616    O    0.38980   0.29510   0.55448   1.000
    N617    N    0.80734   0.07640   0.38855   1.000
    O618    O    0.79359   0.07360   0.37227   1.000
    O619    O    0.79364   0.06900   0.40380   1.000
    O620    O    0.80542   0.04863   0.38522   1.000
    N621    N    0.20857   0.03450   0.79745   1.000
    O622    O    0.21744   0.01202   0.80382   1.000
    O623    O    0.20565   0.03238   0.82241   1.000
    O624    O    0.22380   0.04385   0.80782   1.000
    N625    N    0.95882   0.74005   0.21660   1.000
    O626    O    0.96755   0.76002   0.20480   1.000
    O627    O    0.97402   0.72813   0.20900   1.000
    O628    O    0.95583   0.73500   0.19206   1.000
    N629    N    0.29144   0.46550   0.79745   1.000
    O630    O    0.28256   0.48798   0.80382   1.000
    O631    O    0.29435   0.46762   0.82241   1.000
    O632    O    0.27621   0.45615   0.80782   1.000
    N633    N    0.85621   0.83633   0.01298   1.000
    O634    O    0.88847   0.78573   0.06048   1.000
    O635    O    0.90786   0.81929   0.02979   1.000
    O636    O    0.83756   0.88863   0.96168   1.000
    O637    O    0.80761   0.87699   0.98947   1.000
    N638    N    0.10621   0.91368   0.76298   1.000
    O639    O    0.05761   0.87301   0.73947   1.000
    O640    O    0.15786   0.93071   0.77979   1.000
    O641    O    0.13847   0.96426   0.81048   1.000
    O642    O    0.08756   0.86137   0.71168   1.000
    N643    N    0.27540   0.98520   0.93120   1.000
    O644    O    0.28396   0.98321   0.91757   1.000
    O645    O    0.27218   0.00357   0.93615   1.000
    O646    O    0.26571   0.97168   0.93195   1.000
    N647    N    0.95882   0.24005   0.71660   1.000
    O648    O    0.96755   0.26002   0.70480   1.000
    O649    O    0.97402   0.22813   0.70900   1.000
    O650    O    0.95583   0.23500   0.69206   1.000
    N651    N    0.21218   0.45980   0.37420   1.000
    O652    O    0.21836   0.45730   0.35787   1.000
    O653    O    0.21829   0.45263   0.38920   1.000
    O654    O    0.20657   0.47765   0.37646   1.000
    N655    N    0.79119   0.49005   0.46660   1.000
    O656    O    0.78245   0.51002   0.45480   1.000
    O657    O    0.77598   0.47813   0.45900   1.000
    O658    O    0.79418   0.48500   0.44206   1.000
    N659    N    0.71218   0.45980   0.87420   1.000
    O660    O    0.70657   0.47765   0.87646   1.000
    O661    O    0.71830   0.45263   0.88920   1.000
    O662    O    0.71836   0.45730   0.85787   1.000
    N663    N    0.14189   0.17521   0.76406   1.000
    O664    O    0.16122   0.12026   0.81376   1.000
    O665    O    0.19113   0.13968   0.79025   1.000
    O666    O    0.11015   0.21677   0.70857   1.000
    O667    O    0.09067   0.18471   0.74036   1.000
    N668    N    0.77145   0.39730   0.86640   1.000
    O669    O    0.76176   0.41028   0.88392   1.000
    O670    O    0.76182   0.41495   0.85260   1.000
    O671    O    0.78001   0.42181   0.86954   1.000
    N672    N    0.02144   0.35270   0.61640   1.000
    O673    O    0.01182   0.33506   0.60260   1.000
    O674    O    0.03001   0.32819   0.61954   1.000
    O675    O    0.01176   0.33972   0.63392   1.000
    N676    N    0.14186   0.15797   0.50343   1.000
    O677    O    0.16140   0.10692   0.45041   1.000
    O678    O    0.19119   0.12515   0.47526   1.000
    O679    O    0.11020   0.20490   0.55448   1.000
    O680    O    0.09071   0.16541   0.53113   1.000
    N681    N    0.69267   0.42360   0.38855   1.000
    O682    O    0.70641   0.42640   0.37227   1.000
    O683    O    0.70636   0.43100   0.40380   1.000
    O684    O    0.69458   0.45137   0.38522   1.000
    N685    N    0.14379   0.66368   0.51298   1.000
    O686    O    0.09214   0.68071   0.52979   1.000
    O687    O    0.16244   0.61136   0.46168   1.000
    O688    O    0.19239   0.62301   0.48947   1.000
    O689    O    0.11153   0.71427   0.56048   1.000
    N690    N    0.51491   0.82160   0.13840   1.000
    O691    O    0.50810   0.82298   0.12252   1.000
    O692    O    0.52625   0.81150   0.13711   1.000
    O693    O    0.50805   0.81837   0.15405   1.000
    N694    N    0.70857   0.03450   0.29745   1.000
    O695    O    0.71744   0.01202   0.30382   1.000
    O696    O    0.70565   0.03238   0.32241   1.000
    O697    O    0.72380   0.04385   0.30782   1.000
    N698    N    0.60659   0.89708   0.48941   1.000
    O699    O    0.63878   0.95281   0.44679   1.000
    O700    O    0.65805   0.91124   0.46760   1.000
    O701    O    0.58758   0.84820   0.54390   1.000
    O702    O    0.55778   0.85857   0.51528   1.000
    N703    N    0.52508   0.25010   0.07660   1.000
    O704    O    0.51554   0.26263   0.07217   1.000
    O705    O    0.53372   0.25577   0.08912   1.000
    O706    O    0.52189   0.23080   0.07617   1.000
    N707    N    0.76491   0.92840   0.88840   1.000
    O708    O    0.75810   0.92702   0.87252   1.000
    O709    O    0.77625   0.93850   0.88711   1.000
    O710    O    0.75805   0.93163   0.90405   1.000
    N711    N    0.01491   0.82160   0.63840   1.000
    O712    O    0.02625   0.81150   0.63711   1.000
    O713    O    0.00805   0.81837   0.65405   1.000
    O714    O    0.00810   0.82298   0.62252   1.000
    N715    N    0.70881   0.50995   0.96660   1.000
    O716    O    0.71755   0.48998   0.95480   1.000
    O717    O    0.72402   0.52187   0.95900   1.000
    O718    O    0.70583   0.51500   0.94206   1.000
    N719    N    0.25090   0.02901   0.62957   1.000
    O720    O    0.25609   0.04677   0.55120   1.000
    O721    O    0.24524   0.99416   0.55874   1.000
    O722    O    0.25569   0.05095   0.70765   1.000
    O723    O    0.24528   0.99775   0.70068   1.000
    N724    N    0.46218   0.79020   0.62420   1.000
    O725    O    0.46836   0.79271   0.60787   1.000
    O726    O    0.45657   0.77235   0.62646   1.000
    O727    O    0.46829   0.79737   0.63920   1.000
    N728    N    0.27144   0.89730   0.86640   1.000
    O729    O    0.26175   0.91028   0.88392   1.000
    O730    O    0.26182   0.91494   0.85260   1.000
    O731    O    0.28001   0.92181   0.86954   1.000
    N732    N    0.55734   0.17360   0.13855   1.000
    O733    O    0.54359   0.17640   0.12227   1.000
    O734    O    0.54364   0.18100   0.15380   1.000
    O735    O    0.55542   0.20136   0.13522   1.000
    N736    N    0.22460   0.01480   0.43120   1.000
    O737    O    0.21604   0.01679   0.41757   1.000
    O738    O    0.22782   0.99643   0.43615   1.000
    O739    O    0.23429   0.02832   0.43195   1.000
    N740    N    0.02145   0.85270   0.11640   1.000
    O741    O    0.01176   0.83972   0.13392   1.000
    O742    O    0.01182   0.83505   0.10260   1.000
    O743    O    0.03001   0.82819   0.11954   1.000
    N744    N    0.98509   0.17840   0.63840   1.000
    O745    O    0.99195   0.18163   0.65405   1.000
    O746    O    0.99190   0.17703   0.62252   1.000
    O747    O    0.97375   0.18850   0.63711   1.000
    N748    N    0.52145   0.35270   0.11640   1.000
    O749    O    0.51176   0.33972   0.13392   1.000
    O750    O    0.51182   0.33505   0.10260   1.000
    O751    O    0.53001   0.32819   0.11954   1.000
    N752    N    0.19267   0.42360   0.88855   1.000
    O753    O    0.20641   0.42640   0.87227   1.000
    O754    O    0.20636   0.43100   0.90380   1.000
    O755    O    0.19458   0.45137   0.88522   1.000
    N756    N    0.27508   0.99990   0.82660   1.000
    O757    O    0.26553   0.98737   0.82217   1.000
    O758    O    0.28372   0.99423   0.83912   1.000
    O759    O    0.27189   0.01920   0.82617   1.000
    N760    N    0.73509   0.07160   0.38840   1.000
    O761    O    0.72375   0.06150   0.38711   1.000
    O762    O    0.74195   0.06837   0.40405   1.000
    O763    O    0.74190   0.07298   0.37252   1.000
    N764    N    0.01491   0.32160   0.13840   1.000
    O765    O    0.00805   0.31837   0.15405   1.000
    O766    O    0.02625   0.31150   0.13711   1.000
    O767    O    0.00810   0.32298   0.12252   1.000
    N768    N    0.27508   0.49990   0.32660   1.000
    O769    O    0.28372   0.49424   0.33912   1.000
    O770    O    0.26554   0.48737   0.32217   1.000
    O771    O    0.27189   0.51920   0.32617   1.000
    N772    N    0.94266   0.82640   0.63855   1.000
    O773    O    0.95641   0.82360   0.62227   1.000
    O774    O    0.95636   0.81900   0.65380   1.000
    O775    O    0.94458   0.79864   0.63522   1.000
    N776    N    0.79119   0.99005   0.96660   1.000
    O777    O    0.78245   0.01002   0.95480   1.000
    O778    O    0.77598   0.97813   0.95900   1.000
    O779    O    0.79418   0.98500   0.94206   1.000
    N780    N    0.54119   0.75995   0.21660   1.000
    O781    O    0.53245   0.73998   0.20480   1.000
    O782    O    0.52598   0.77187   0.20900   1.000
    O783    O    0.54418   0.76500   0.19206   1.000
    N784    N    0.54119   0.25995   0.71660   1.000
    O785    O    0.53245   0.23998   0.70480   1.000
    O786    O    0.52598   0.27187   0.70900   1.000
    O787    O    0.54418   0.26500   0.69206   1.000
    N788    N    0.19267   0.92360   0.38855   1.000
    O789    O    0.20641   0.92640   0.37227   1.000
    O790    O    0.20636   0.93100   0.40380   1.000
    O791    O    0.19458   0.95137   0.38522   1.000
    N792    N    0.52145   0.85270   0.61640   1.000
    O793    O    0.51182   0.83505   0.60260   1.000
    O794    O    0.53001   0.82819   0.61954   1.000
    O795    O    0.51176   0.83972   0.63392   1.000
    N796    N    0.05734   0.67360   0.13855   1.000
    O797    O    0.04359   0.67640   0.12227   1.000
    O798    O    0.04364   0.68100   0.15380   1.000
    O799    O    0.05542   0.70136   0.13522   1.000
    N800    N    0.94266   0.32640   0.13855   1.000
    O801    O    0.95641   0.32360   0.12227   1.000
    O802    O    0.95636   0.31900   0.15380   1.000
    O803    O    0.94458   0.29864   0.13522   1.000
    N804    N    0.05734   0.17360   0.63855   1.000
    O805    O    0.04364   0.18100   0.65380   1.000
    O806    O    0.05542   0.20137   0.63522   1.000
    O807    O    0.04359   0.17640   0.62227   1.000
    N808    N    0.52508   0.75010   0.57660   1.000
    O809    O    0.51554   0.76263   0.57217   1.000
    O810    O    0.53372   0.75577   0.58912   1.000
    O811    O    0.52189   0.73080   0.57617   1.000
    N812    N    0.53782   0.20980   0.62420   1.000
    O813    O    0.53164   0.20730   0.60787   1.000
    O814    O    0.54343   0.22765   0.62646   1.000
    O815    O    0.53171   0.20263   0.63920   1.000
    N816    N    0.03782   0.70980   0.62420   1.000
    O817    O    0.03164   0.70729   0.60787   1.000
    O818    O    0.04343   0.72765   0.62646   1.000
    O819    O    0.03171   0.70263   0.63920   1.000
    N820    N    0.97460   0.73520   0.68120   1.000
    O821    O    0.97782   0.75357   0.68615   1.000
    O822    O    0.96604   0.73321   0.66757   1.000
    O823    O    0.98429   0.72168   0.68195   1.000
    N824    N    0.30734   0.07640   0.88855   1.000
    O825    O    0.29359   0.07360   0.87227   1.000
    O826    O    0.29364   0.06900   0.90380   1.000
    O827    O    0.30542   0.04864   0.88522   1.000
    N828    N    0.97492   0.24990   0.07660   1.000
    O829    O    0.98447   0.23737   0.07217   1.000
    O830    O    0.96628   0.24424   0.08912   1.000
    O831    O    0.97811   0.26920   0.07617   1.000
    N832    N    0.02508   0.75010   0.07660   1.000
    O833    O    0.01553   0.76263   0.07217   1.000
    O834    O    0.03372   0.75577   0.08912   1.000
    O835    O    0.02189   0.73080   0.07617   1.000
    N836    N    0.77508   0.49990   0.82660   1.000
    O837    O    0.76553   0.48737   0.82217   1.000
    O838    O    0.78372   0.49424   0.83912   1.000
    O839    O    0.77189   0.51920   0.82617   1.000
    N840    N    0.78782   0.54020   0.37420   1.000
    O841    O    0.79343   0.52235   0.37646   1.000
    O842    O    0.78164   0.54270   0.35787   1.000
    O843    O    0.78171   0.54737   0.38920   1.000
    N844    N    0.29119   0.99005   0.46660   1.000
    O845    O    0.28245   0.01002   0.45480   1.000
    O846    O    0.27598   0.97813   0.45900   1.000
    O847    O    0.29418   0.98500   0.44206   1.000
    N848    N    0.47460   0.73520   0.18120   1.000
    O849    O    0.47782   0.75357   0.18615   1.000
    O850    O    0.46604   0.73321   0.16757   1.000
    O851    O    0.48429   0.72168   0.18195   1.000
    N852    N    0.45881   0.74005   0.71660   1.000
    O853    O    0.46755   0.76002   0.70480   1.000
    O854    O    0.47402   0.72813   0.70900   1.000
    O855    O    0.45582   0.73500   0.69206   1.000
    N856    N    0.44267   0.32640   0.63855   1.000
    O857    O    0.45641   0.32360   0.62227   1.000
    O858    O    0.45636   0.31900   0.65380   1.000
    O859    O    0.44458   0.29864   0.63522   1.000
    N860    N    0.69267   0.92360   0.88855   1.000
    O861    O    0.70641   0.92640   0.87227   1.000
    O862    O    0.70636   0.93100   0.90380   1.000
    O863    O    0.69458   0.95136   0.88522   1.000
    N864    N    0.29119   0.49005   0.96660   1.000
    O865    O    0.28245   0.51002   0.95480   1.000
    O866    O    0.27598   0.47813   0.95900   1.000
    O867    O    0.29418   0.48500   0.94206   1.000
    N868    N    0.20881   0.00995   0.96660   1.000
    O869    O    0.21755   0.98998   0.95480   1.000
    O870    O    0.22402   0.02187   0.95900   1.000
    O871    O    0.20583   0.01500   0.94206   1.000
    N872    N    0.04119   0.25995   0.21660   1.000
    O873    O    0.03245   0.23998   0.20480   1.000
    O874    O    0.02598   0.27187   0.20900   1.000
    O875    O    0.04418   0.26500   0.19206   1.000
    N876    N    0.27540   0.48520   0.43120   1.000
    O877    O    0.27218   0.50357   0.43615   1.000
    O878    O    0.28396   0.48321   0.41757   1.000
    O879    O    0.26571   0.47168   0.43195   1.000
    N880    N    0.22460   0.51480   0.93120   1.000
    O881    O    0.21604   0.51679   0.91757   1.000
    O882    O    0.22782   0.49643   0.93615   1.000
    O883    O    0.23429   0.52832   0.93195   1.000
    N884    N    0.98509   0.67840   0.13840   1.000
    O885    O    0.97375   0.68850   0.13711   1.000
    O886    O    0.99195   0.68163   0.15405   1.000
    O887    O    0.99190   0.67702   0.12252   1.000
    N888    N    0.26491   0.42840   0.88840   1.000
    O889    O    0.25810   0.42703   0.87252   1.000
    O890    O    0.27625   0.43850   0.88711   1.000
    O891    O    0.25805   0.43163   0.90405   1.000
    N892    N    0.03782   0.20980   0.12420   1.000
    O893    O    0.04343   0.22765   0.12646   1.000
    O894    O    0.03170   0.20263   0.13920   1.000
    O895    O    0.03164   0.20730   0.10787   1.000
    N896    N    0.78782   0.04020   0.87420   1.000
    O897    O    0.79343   0.02235   0.87646   1.000
    O898    O    0.78171   0.04737   0.88920   1.000
    O899    O    0.78164   0.04270   0.85787   1.000
    N900    N    0.97460   0.23520   0.18120   1.000
    O901    O    0.96604   0.23321   0.16757   1.000
    O902    O    0.97782   0.25357   0.18615   1.000
    O903    O    0.98429   0.22168   0.18195   1.000
    N904    N    0.72492   0.50010   0.32660   1.000
    O905    O    0.71628   0.50576   0.33912   1.000
    O906    O    0.73447   0.51263   0.32217   1.000
    O907    O    0.72811   0.48080   0.32617   1.000
    N908    N    0.22492   0.00010   0.32660   1.000
    O909    O    0.21628   0.00576   0.33912   1.000
    O910    O    0.23446   0.01263   0.32217   1.000
    O911    O    0.22811   0.98080   0.32617   1.000
    N912    N    0.73509   0.57160   0.88840   1.000
    O913    O    0.74190   0.57298   0.87252   1.000
    O914    O    0.72375   0.56150   0.88711   1.000
    O915    O    0.74195   0.56837   0.90405   1.000
    N916    N    0.72460   0.51480   0.43120   1.000
    O917    O    0.72782   0.49643   0.43615   1.000
    O918    O    0.71604   0.51679   0.41757   1.000
    O919    O    0.73429   0.52832   0.43195   1.000
    N920    N    0.72492   0.00010   0.82660   1.000
    O921    O    0.73447   0.01263   0.82217   1.000
    O922    O    0.71628   0.00576   0.83912   1.000
    O923    O    0.72811   0.98080   0.82617   1.000
    N924    N    0.04119   0.75995   0.71660   1.000
    O925    O    0.03245   0.73998   0.70480   1.000
    O926    O    0.02598   0.77187   0.70900   1.000
    O927    O    0.04418   0.76500   0.69206   1.000
    N928    N    0.51491   0.32160   0.63840   1.000
    O929    O    0.50805   0.31837   0.65405   1.000
    O930    O    0.50810   0.32298   0.62252   1.000
    O931    O    0.52625   0.31150   0.63711   1.000
    N932    N    0.47492   0.24990   0.57660   1.000
    O933    O    0.48447   0.23737   0.57217   1.000
    O934    O    0.46628   0.24424   0.58912   1.000
    O935    O    0.47811   0.26920   0.57617   1.000
    N936    N    0.52540   0.76480   0.68120   1.000
    O937    O    0.52218   0.74643   0.68615   1.000
    O938    O    0.53396   0.76679   0.66757   1.000
    O939    O    0.51571   0.77832   0.68195   1.000
    N940    N    0.77508   0.99990   0.32660   1.000
    O941    O    0.78372   0.99423   0.33912   1.000
    O942    O    0.76553   0.98737   0.32217   1.000
    O943    O    0.77189   0.01920   0.32617   1.000
    N944    N    0.47492   0.74990   0.07660   1.000
    O945    O    0.46628   0.74423   0.08912   1.000
    O946    O    0.48446   0.73737   0.07217   1.000
    O947    O    0.47811   0.76920   0.07617   1.000
    N948    N    0.70881   0.00995   0.46660   1.000
    O949    O    0.72402   0.02187   0.45900   1.000
    O950    O    0.70583   0.01500   0.44206   1.000
    O951    O    0.71755   0.98998   0.45480   1.000
    N952    N    0.76491   0.42840   0.38840   1.000
    O953    O    0.75810   0.42702   0.37252   1.000
    O954    O    0.75805   0.43163   0.40405   1.000
    O955    O    0.77625   0.43850   0.38711   1.000
    N956    N    0.46218   0.29020   0.12420   1.000
    O957    O    0.45657   0.27235   0.12646   1.000
    O958    O    0.46836   0.29271   0.10787   1.000
    O959    O    0.46830   0.29737   0.13920   1.000
    N960    N    0.77540   0.98520   0.43120   1.000
    O961    O    0.77218   0.00357   0.43615   1.000
    O962    O    0.78396   0.98321   0.41757   1.000
    O963    O    0.76571   0.97168   0.43195   1.000
    N964    N    0.21218   0.95980   0.87420   1.000
    O965    O    0.20657   0.97765   0.87646   1.000
    O966    O    0.21830   0.95263   0.88920   1.000
    O967    O    0.21836   0.95729   0.85787   1.000
    N968    N    0.96218   0.79020   0.12420   1.000
    O969    O    0.96836   0.79271   0.10787   1.000
    O970    O    0.95657   0.77235   0.12646   1.000
    O971    O    0.96830   0.79737   0.13920   1.000
    N972    N    0.72460   0.01480   0.93120   1.000
    O973    O    0.71604   0.01679   0.91757   1.000
    O974    O    0.72782   0.99643   0.93615   1.000
    O975    O    0.73429   0.02832   0.93195   1.000
    N976    N    0.77540   0.48520   0.93120   1.000
    O977    O    0.78396   0.48321   0.91757   1.000
    O978    O    0.77218   0.50357   0.93615   1.000
    O979    O    0.76571   0.47168   0.93195   1.000
    N980    N    0.28782   0.54020   0.87420   1.000
    O981    O    0.29343   0.52235   0.87646   1.000
    O982    O    0.28170   0.54737   0.88920   1.000
    O983    O    0.28164   0.54270   0.85787   1.000
    N984    N    0.23509   0.07160   0.88840   1.000
    O985    O    0.24190   0.07298   0.87252   1.000
    O986    O    0.22375   0.06150   0.88711   1.000
    O987    O    0.24195   0.06837   0.90405   1.000
    N988    N    0.47460   0.23520   0.68120   1.000
    O989    O    0.47782   0.25357   0.68615   1.000
    O990    O    0.46604   0.23321   0.66757   1.000
    O991    O    0.48429   0.22168   0.68195   1.000
    N992    N    0.28782   0.04020   0.37420   1.000
    O993    O    0.28164   0.04270   0.35787   1.000
    O994    O    0.28170   0.04737   0.38920   1.000
    O995    O    0.29343   0.02235   0.37646   1.000
    N996    N    0.26491   0.92840   0.38840   1.000
    O997    O    0.25805   0.93163   0.40405   1.000
    O998    O    0.27625   0.93850   0.38711   1.000
    O999    O    0.25810   0.92703   0.37252   1.000
    N1000   N    0.48509   0.17840   0.13840   1.000
    O1001   O    0.49190   0.17702   0.12252   1.000
    O1002   O    0.49195   0.18163   0.15405   1.000
    O1003   O    0.47375   0.18850   0.13711   1.000
    N1004   N    0.96218   0.29020   0.62420   1.000
    O1005   O    0.96836   0.29270   0.60787   1.000
    O1006   O    0.95657   0.27235   0.62646   1.000
    O1007   O    0.96830   0.29737   0.63920   1.000
loop_
    _geom_bond_atom_site_label_1
    _geom_bond_atom_site_label_2
    _geom_bond_distance
    _geom_bond_site_symmetry_2
    _ccdc_geom_bond_type
    N96    O97       2.12920      .   S
    Zr12   O97       3.25976      .   S
    N96    O98       2.26251      .   S
    Zr78   O98       3.37335      .   S
    N96    O99       2.13091      .   S
    Zr48   O99       3.22063      .   S
    N96    O100      2.26118      .   S
    Zr87   O100      3.35590      .   S
    N101   O102      2.24291      .   S
    Zr57   O102      3.32597      .   S
    N101   O103      2.15478      .   S
    Zr34   O103      3.28202      .   S
    N101   O104      2.18475      .   S
    Zr12   O104      3.31789      .   S
    N101   O105      2.25905      .   S
    Zr79   O105      3.34923      .   S
    N106   O107      0.70513      .   S
    Zr55   O107      1.79689      .   S
    N106   O108      0.70812      .   S
    Zr25   O108      1.80622      .   S
    N106   O109      0.72604      .   S
    Zr85   O109      1.86309      .   S
    N110   O111      2.12920      .   S
    Zr15   O111      3.25976      .   S
    N110   O112      2.13091      .   S
    Zr47   O112      3.22063      .   S
    N110   O113      2.26251      .   S
    Zr77   O113      3.37335      .   S
    N110   O114      2.26118      .   S
    Zr90   O114      3.35590      .   S
    N115   O116      2.25558      .   S
    Zr46   O116      3.34600  1_565   S
    N115   O117      2.10581      .   S
    Zr39   O117      3.20626      .   S
    N115   O118      2.12628      .   S
    Zr31   O118      3.24265      .   S
    N115   O119      2.27646      .   S
    Zr9    O119      3.39398      .   S
    N120   O121      2.12628      .   S
    Zr1    O121      3.24265      .   S
    N120   O122      2.10581      .   S
    Zr42   O122      3.20626      .   S
    N120   O123      2.25558      .   S
    Zr2    O123      3.34600      .   S
    N120   O124      2.27646      .   S
    Zr12   O124      3.39398      .   S
    N125   O126      2.25558      .   S
    Zr49   O126      3.34600      .   S
    N125   O127      2.12628      .   S
    Zr34   O127      3.24265      .   S
    N125   O128      2.10581      .   S
    Zr48   O128      3.20626      .   S
    N125   O129      2.27646      .   S
    Zr18   O129      3.39398      .   S
    N130   O131      2.26251      .   S
    Zr4    O131      3.37335  1_455   S
    N130   O132      2.12920      .   S
    Zr11   O132      3.25976      .   S
    N130   O133      2.13091      .   S
    Zr2    O133      3.22063      .   S
    N130   O134      2.26118      .   S
    Zr86   O134      3.35590  1_565   S
    N135   O136      2.11698      .   S
    Zr86   O136      3.22201      .   S
    N135   O137      2.26038      .   S
    Zr43   O137      3.36107      .   S
    N135   O138      2.13999      .   S
    Zr58   O138      3.26153      .   S
    N135   O139      2.27815      .   S
    Zr26   O139      3.39285      .   S
    N140   O141      2.12920      .   S
    Zr18   O141      3.25976      .   S
    N140   O142      2.26251      .   S
    Zr68   O142      3.37335      .   S
    N140   O143      2.26118      .   S
    Zr93   O143      3.35590      .   S
    N140   O144      2.13091      .   S
    Zr38   O144      3.22063      .   S
    N145   O146      2.26038      .   S
    Zr40   O146      3.36107      .   S
    N145   O147      2.11698      .   S
    Zr87   O147      3.22201      .   S
    N145   O148      2.13999      .   S
    Zr55   O148      3.26153      .   S
    N145   O149      2.27815      .   S
    Zr27   O149      3.39285      .   S
    N150   O151      2.26038      .   S
    Zr44   O151      3.36107      .   S
    N150   O152      2.13999      .   S
    Zr59   O152      3.26153      .   S
    N150   O153      2.27815      .   S
    Zr31   O153      3.39285      .   S
    N150   O154      2.11698      .   S
    Zr91   O154      3.22201      .   S
    N155   O156      0.70812      .   S
    Zr30   O156      1.80622      .   S
    N155   O157      0.72604      .   S
    Zr90   O157      1.86309      .   S
    N155   O158      0.70513      .   S
    Zr60   O158      1.79689      .   S
    N159   O160      2.26251      .   S
    Zr70   O160      3.37335      .   S
    N159   O161      2.12920  1_554   S
    Zr20   O161      3.25976      .   S
    N159   O162      2.26118  1_554   S
    Zr95   O162      3.35590  1_545   S
    N159   O163      2.13091      .   S
    Zr40   O163      3.22063      .   S
    N164   O165      2.24947      .   S
    Zr89   O165      3.33185      .   S
    N164   O166      2.13001  1_554   S
    Zr94   O166      3.21138      .   S
    N164   O167      2.15856      .   S
    Zr74   O167      3.31355      .   S
    N164   O168      2.25597  1_554   S
    Zr64   O168      3.38651      .   S
    N169   O170      0.70812      .   S
    Zr21   O170      1.80622  1_455   S
    N169   O171      0.72604      .   S
    Zr81   O171      1.86309      .   S
    N169   O172      0.70513      .   S
    Zr51   O172      1.79689  1_455   S
    N173   O174      2.24947      .   S
    Zr92   O174      3.33185      .   S
    N173   O175      2.13001      .   S
    Zr87   O175      3.21138      .   S
    N173   O176      2.25597      .   S
    Zr57   O176      3.38651      .   S
    N173   O177      2.15856      .   S
    Zr77   O177      3.31355      .   S
    N178   O179      2.12628      .   S
    Zr35   O179      3.24265      .   S
    N178   O180      2.25558      .   S
    Zr50   O180      3.34600  1_565   S
    N178   O181      2.27646      .   S
    Zr0    O181      3.39398  1_455   S
    N178   O182      2.10581      .   S
    Zr2    O182      3.20626      .   S
    N183   O184      2.26038      .   S
    Zr36   O184      3.36107      .   S
    N183   O185      2.11698      .   S
    Zr83   O185      3.22201      .   S
    N183   O186      2.13999      .   S
    Zr51   O186      3.26153      .   S
    N183   O187      2.27815      .   S
    Zr23   O187      3.39285      .   S
    N188   O189      0.51782      .   S
    Zr41   O189      1.55345  1_545   S
    N188   O190      0.51993      .   S
    Zr26   O190      1.55978      .   S
    N188   O191      0.51690      .   S
    Zr56   O191      1.55071      .   S
    N192   O193      0.70513      .   S
    Zr53   O193      1.79689      .   S
    N192   O194      0.70812      .   S
    Zr23   O194      1.80622      .   S
    N192   O195      0.72604      .   S
    Zr83   O195      1.86309      .   S
    N196   O197      2.12628      .   S
    Zr33   O197      3.24265      .   S
    N196   O198      2.27646      .   S
    Zr11   O198      3.39398      .   S
    N196   O199      2.10581      .   S
    Zr41   O199      3.20626      .   S
    N196   O200      2.25558      .   S
    Zr48   O200      3.34600      .   S
    N201   O202      2.24947      .   S
    Zr84   O202      3.33185      .   S
    N201   O203      2.25597  1_554   S
    Zr65   O203      3.38651      .   S
    N201   O204      2.13001  1_554   S
    Zr95   O204      3.21138      .   S
    N201   O205      2.15856      .   S
    Zr69   O205      3.31355      .   S
    N206   O207      2.13001  1_554   S
    Zr82   O207      3.21138      .   S
    N206   O208      2.24947      .   S
    Zr85   O208      3.33185      .   S
    N206   O209      2.25597  1_554   S
    Zr52   O209      3.38651      .   S
    N206   O210      2.15856      .   S
    Zr70   O210      3.31355      .   S
    N211   O212      2.26118      .   S
    Zr92   O212      3.35590      .   S
    N211   O213      2.26251      .   S
    Zr79   O213      3.37335      .   S
    N211   O214      2.13091      .   S
    Zr49   O214      3.22063      .   S
    N211   O215      2.12920      .   S
    Zr17   O215      3.25976      .   S
    N216   O217      2.15478  1_565   S
    Zr31   O217      3.28202      .   S
    N216   O218      2.25905      .   S
    Zr76   O218      3.34923      .   S
    N216   O219      2.24291      .   S
    Zr52   O219      3.32597  1_556   S
    N216   O220      2.18475  1_565   S
    Zr7    O220      3.31789  1_556   S
    N221   O222      2.25597      .   S
    Zr63   O222      3.38651      .   S
    N221   O223      2.24947      .   S
    Zr82   O223      3.33185  1_565   S
    N221   O224      2.13001      .   S
    Zr93   O224      3.21138      .   S
    N221   O225      2.15856      .   S
    Zr67   O225      3.31355      .   S
    N226   O227      2.27815      .   S
    Zr30   O227      3.39285      .   S
    N226   O228      2.13999      .   S
    Zr54   O228      3.26153      .   S
    N226   O229      2.11698      .   S
    Zr90   O229      3.22201      .   S
    N226   O230      2.26038      .   S
    Zr39   O230      3.36107      .   S
    N231   O232      0.70812      .   S
    Zr29   O232      1.80622  1_455   S
    N231   O233      0.72604      .   S
    Zr89   O233      1.86309      .   S
    N231   O234      0.70513      .   S
    Zr59   O234      1.79689  1_455   S
    N235   O236      2.15856      .   S
    Zr79   O236      3.31355      .   S
    N235   O237      2.24947      .   S
    Zr94   O237      3.33185      .   S
    N235   O238      2.25597      .   S
    Zr51   O238      3.38651  1_455   S
    N235   O239      2.13001      .   S
    Zr81   O239      3.21138      .   S
    N240   O241      2.24291      .   S
    Zr58   O241      3.32597      .   S
    N240   O242      2.25905      .   S
    Zr66   O242      3.34923      .   S
    N240   O243      2.15478  1_655   S
    Zr21   O243      3.28202      .   S
    N240   O244      2.18475  1_655   S
    Zr13   O244      3.31789      .   S
    N245   O246      2.26038      .   S
    Zr50   O246      3.36107  1_565   S
    N245   O247      2.11698  1_556   S
    Zr89   O247      3.22201      .   S
    N245   O248      2.27815  1_556   S
    Zr29   O248      3.39285  1_455   S
    N245   O249      2.13999      .   S
    Zr65   O249      3.26153      .   S
    N250   O251      2.15856      .   S
    Zr71   O251      3.31355      .   S
    N250   O252      2.25597      .   S
    Zr59   O252      3.38651  1_455   S
    N250   O253      2.24947      .   S
    Zr86   O253      3.33185  1_565   S
    N250   O254      2.13001      .   S
    Zr89   O254      3.21138      .   S
    N255   O256      0.70812      .   S
    Zr33   O256      1.80622      .   S
    N255   O257      0.72604      .   S
    Zr93   O257      1.86309      .   S
    N255   O258      0.70513      .   S
    Zr63   O258      1.79689      .   S
    N259   O260      2.12628      .   S
    Zr25   O260      3.24265      .   S
    N259   O261      2.10581  1_554   S
    Zr49   O261      3.20626      .   S
    N259   O262      2.25558      .   S
    Zr40   O262      3.34600      .   S
    N259   O263      2.27646  1_554   S
    Zr19   O263      3.39398      .   S
    N264   O265      2.26118      .   S
    Zr81   O265      3.35590      .   S
    N264   O266      2.13091      .   S
    Zr50   O266      3.22063      .   S
    N264   O267      2.12920      .   S
    Zr6    O267      3.25976      .   S
    N264   O268      2.26251      .   S
    Zr80   O268      3.37335      .   S
    N269   O270      2.18475      .   S
    Zr8    O270      3.31789  1_556   S
    N269   O271      2.24291      .   S
    Zr53   O271      3.32597  1_556   S
    N269   O272      2.15478      .   S
    Zr30   O272      3.28202      .   S
    N269   O273      2.25905      .   S
    Zr75   O273      3.34923      .   S
    N274   O275      2.27646      .   S
    Zr17   O275      3.39398      .   S
    N274   O276      2.25558      .   S
    Zr38   O276      3.34600      .   S
    N274   O277      2.10581      .   S
    Zr47   O277      3.20626      .   S
    N274   O278      2.12628      .   S
    Zr23   O278      3.24265      .   S
    N279   O280      2.24291      .   S
    Zr65   O280      3.32597  1_556   S
    N279   O281      2.25905      .   S
    Zr71   O281      3.34923      .   S
    N279   O282      2.15478  1_545   S
    Zr26   O282      3.28202      .   S
    N279   O283      2.18475  1_545   S
    Zr20   O283      3.31789  1_556   S
    N284   O285      2.12628      .   S
    Zr29   O285      3.24265      .   S
    N284   O286      2.25558      .   S
    Zr44   O286      3.34600      .   S
    N284   O287      2.27646  1_554   S
    Zr7    O287      3.39398      .   S
    N284   O288      2.10581  1_554   S
    Zr37   O288      3.20626      .   S
    N289   O290      2.25597      .   S
    Zr58   O290      3.38651  1_655   S
    N289   O291      2.24947      .   S
    Zr91   O291      3.33185  1_545   S
    N289   O292      2.13001      .   S
    Zr88   O292      3.21138      .   S
    N289   O293      2.15856      .   S
    Zr76   O293      3.31355      .   S
    N294   O295      0.70856      .   S
    Zr70   O295      1.80529      .   S
    N294   O296      0.71164      .   S
    Zr10   O296      1.81498      .   S
    N294   O297      0.73220      .   S
    Zr85   O297      1.88011      .   S
    N298   O299      2.12920  1_554   S
    Zr7    O299      3.25976      .   S
    N298   O300      2.26251      .   S
    Zr69   O300      3.37335      .   S
    N298   O301      2.13091      .   S
    Zr39   O301      3.22063      .   S
    N298   O302      2.26118  1_554   S
    Zr82   O302      3.35590  1_565   S
    N303   O304      2.13001      .   S
    Zr92   O304      3.21138      .   S
    N303   O305      2.24947      .   S
    Zr95   O305      3.33185  1_545   S
    N303   O306      2.25597      .   S
    Zr62   O306      3.38651      .   S
    N303   O307      2.15856      .   S
    Zr80   O307      3.31355      .   S
    N308   O309      2.12628      .   S
    Zr26   O309      3.24265      .   S
    N308   O310      2.10581      .   S
    Zr40   O310      3.20626      .   S
    N308   O311      2.25558      .   S
    Zr41   O311      3.34600  1_545   S
    N308   O312      2.27646      .   S
    Zr10   O312      3.39398      .   S
    N313   O314      0.70856      .   S
    Zr77   O314      1.80529      .   S
    N313   O315      0.71164      .   S
    Zr17   O315      1.81498      .   S
    N313   O316      0.73220      .   S
    Zr92   O316      1.88011      .   S
    N317   O318      2.24291      .   S
    Zr60   O318      3.32597      .   S
    N317   O319      2.15478      .   S
    Zr23   O319      3.28202      .   S
    N317   O320      2.25905      .   S
    Zr68   O320      3.34923      .   S
    N317   O321      2.18475      .   S
    Zr15   O321      3.31789      .   S
    N322   O323      2.27815      .   S
    Zr21   O323      3.39285  1_455   S
    N322   O324      2.13999      .   S
    Zr57   O324      3.26153      .   S
    N322   O325      2.11698      .   S
    Zr81   O325      3.22201      .   S
    N322   O326      2.26038      .   S
    Zr42   O326      3.36107      .   S
    N327   O328      2.18475  1_565   S
    Zr11   O328      3.31789      .   S
    N327   O329      2.25905      .   S
    Zr80   O329      3.34923      .   S
    N327   O330      2.24291      .   S
    Zr56   O330      3.32597      .   S
    N327   O331      2.15478  1_565   S
    Zr35   O331      3.28202      .   S
    N332   O333      2.11698      .   S
    Zr95   O333      3.22201      .   S
    N332   O334      2.13999      .   S
    Zr63   O334      3.26153      .   S
    N332   O335      2.26038      .   S
    Zr48   O335      3.36107      .   S
    N332   O336      2.27815      .   S
    Zr35   O336      3.39285      .   S
    N337   O338      0.70407      .   S
    Zr60   O338      1.79899      .   S
    N337   O339      0.70490      .   S
    Zr15   O339      1.80234      .   S
    N337   O340      0.70666      .   S
    Zr45   O340      1.80734      .   S
    N341   O342      2.27815      .   S
    Zr34   O342      3.39285      .   S
    N341   O343      2.11698      .   S
    Zr94   O343      3.22201      .   S
    N341   O344      2.26038      .   S
    Zr2    O344      3.36107      .   S
    N341   O345      2.13999      .   S
    Zr3    O345      3.26153      .   S
    N346   O347      2.25597      .   S
    Zr54   O347      3.38651      .   S
    N346   O348      2.24947      .   S
    Zr87   O348      3.33185      .   S
    N346   O349      2.15856      .   S
    Zr72   O349      3.31355      .   S
    N346   O350      2.13001      .   S
    Zr84   O350      3.21138      .   S
    N351   O352      2.24291      .   S
    Zr54   O352      3.32597      .   S
    N351   O353      2.15478      .   S
    Zr33   O353      3.28202      .   S
    N351   O354      2.18475      .   S
    Zr9    O354      3.31789      .   S
    N351   O355      2.25905      .   S
    Zr78   O355      3.34923      .   S
    N356   O357      2.25905      .   S
    Zr77   O357      3.34923      .   S
    N356   O358      2.18475      .   S
    Zr10   O358      3.31789      .   S
    N356   O359      2.24291      .   S
    Zr55   O359      3.32597      .   S
    N356   O360      2.15478      .   S
    Zr32   O360      3.28202      .   S
    N361   O362      2.13091      .   S
    Zr45   O362      3.22063      .   S
    N361   O363      2.26251      .   S
    Zr75   O363      3.37335      .   S
    N361   O364      2.26118      .   S
    Zr88   O364      3.35590      .   S
    N361   O365      2.12920      .   S
    Zr13   O365      3.25976      .   S
    N366   O367      2.26251      .   S
    Zr76   O367      3.37335      .   S
    N366   O368      2.12920      .   S
    Zr10   O368      3.25976      .   S
    N366   O369      2.13091      .   S
    Zr46   O369      3.22063      .   S
    N366   O370      2.26118      .   S
    Zr85   O370      3.35590      .   S
    N371   O372      2.25597      .   S
    Zr55   O372      3.38651      .   S
    N371   O373      2.24947      .   S
    Zr90   O373      3.33185      .   S
    N371   O374      2.13001      .   S
    Zr85   O374      3.21138      .   S
    N371   O375      2.15856      .   S
    Zr75   O375      3.31355      .   S
    N376   O377      2.24291      .   S
    Zr63   O377      3.32597      .   S
    N376   O378      2.15478      .   S
    Zr24   O378      3.28202  1_554   S
    N376   O379      2.25905      .   S
    Zr69   O379      3.34923  1_554   S
    N376   O380      2.18475      .   S
    Zr18   O380      3.31789      .   S
    N381   O382      2.24291      .   S
    Zr64   O382      3.32597  1_556   S
    N381   O383      2.15478      .   S
    Zr27   O383      3.28202      .   S
    N381   O384      2.18475      .   S
    Zr19   O384      3.31789  1_556   S
    N381   O385      2.25905      .   S
    Zr72   O385      3.34923      .   S
    N386   O387      2.26251      .   S
    Zr71   O387      3.37335      .   S
    N386   O388      2.13091      .   S
    Zr41   O388      3.22063      .   S
    N386   O389      2.12920      .   S
    Zr9    O389      3.25976      .   S
    N386   O390      2.26118      .   S
    Zr84   O390      3.35590      .   S
    N391   O392      0.70345      .   S
    Zr27   O392      1.79579      .   S
    N391   O393      0.70755      .   S
    Zr42   O393      1.80776      .   S
    N391   O394      0.70685      .   S
    Zr72   O394      1.80498      .   S
    N395   O396      0.50990      .   S
    Zr84   O396      1.52970      .   S
    N395   O397      0.51332      .   S
    Zr9    O397      1.53996      .   S
    N395   O398      0.51828      .   S
    Zr54   O398      1.55484      .   S
    N399   O400      2.25597      .   S
    Zr56   O400      3.38651      .   S
    N399   O401      2.24947      .   S
    Zr81   O401      3.33185      .   S
    N399   O402      2.15856      .   S
    Zr66   O402      3.31355      .   S
    N399   O403      2.13001      .   S
    Zr86   O403      3.21138      .   S
    N404   O405      0.51774      .   S
    Zr47   O405      1.55322      .   S
    N404   O406      0.51960      .   S
    Zr17   O406      1.55879      .   S
    N404   O407      0.51835      .   S
    Zr77   O407      1.55504      .   S
    N408   O409      2.15478      .   S
    Zr25   O409      3.28202  1_554   S
    N408   O410      2.24291      .   S
    Zr62   O410      3.32597      .   S
    N408   O411      2.18475      .   S
    Zr17   O411      3.31789      .   S
    N408   O412      2.25905      .   S
    Zr70   O412      3.34923  1_554   S
    N413   O414      0.70345      .   S
    Zr1    O414      1.79579      .   S
    N413   O415      0.70755      .   S
    Zr2    O415      1.80776      .   S
    N413   O416      0.70685      .   S
    Zr4    O416      1.80498  1_455   S
    N417   O418      0.70345      .   S
    Zr33   O418      1.79579      .   S
    N417   O419      0.70755      .   S
    Zr48   O419      1.80776      .   S
    N417   O420      0.70685      .   S
    Zr78   O420      1.80498      .   S
    N421   O422      0.70345      .   S
    Zr21   O422      1.79579      .   S
    N421   O423      0.70755      .   S
    Zr36   O423      1.80776      .   S
    N421   O424      0.70685      .   S
    Zr66   O424      1.80498  1_655   S
    N425   O426      0.70345      .   S
    Zr25   O426      1.79579      .   S
    N425   O427      0.70755      .   S
    Zr40   O427      1.80776      .   S
    N425   O428      0.70685      .   S
    Zr70   O428      1.80498      .   S
    N429   O430      0.51155      .   S
    Zr23   O430      1.53464      .   S
    N429   O431      0.50841      .   S
    Zr83   O431      1.52524      .   S
    N429   O432      0.51764      .   S
    Zr68   O432      1.55292      .   S
    N433   O434      2.13999      .   S
    Zr61   O434      3.26153      .   S
    N433   O435      2.26038      .   S
    Zr46   O435      3.36107  1_565   S
    N433   O436      2.27815      .   S
    Zr33   O436      3.39285      .   S
    N433   O437      2.11698      .   S
    Zr93   O437      3.22201      .   S
    N438   O439      2.26251      .   S
    Zr66   O439      3.37335  1_655   S
    N438   O440      2.12920      .   S
    Zr16   O440      3.25976      .   S
    N438   O441      2.26118      .   S
    Zr91   O441      3.35590  1_545   S
    N438   O442      2.13091      .   S
    Zr36   O442      3.22063      .   S
    N443   O444      2.27815      .   S
    Zr1    O444      3.39285  1_655   S
    N443   O445      2.26038      .   S
    Zr45   O445      3.36107      .   S
    N443   O446      2.13999      .   S
    Zr60   O446      3.26153      .   S
    N443   O447      2.11698      .   S
    Zr5    O447      3.22201      .   S
    N448   O449      0.70856      .   S
    Zr75   O449      1.80529      .   S
    N448   O450      0.71164      .   S
    Zr15   O450      1.81498      .   S
    N448   O451      0.73220      .   S
    Zr90   O451      1.88011      .   S
    N452   O453      2.25558      .   S
    Zr45   O453      3.34600      .   S
    N452   O454      2.27646      .   S
    Zr14   O454      3.39398  1_655   S
    N452   O455      2.10581      .   S
    Zr44   O455      3.20626      .   S
    N452   O456      2.12628      .   S
    Zr30   O456      3.24265      .   S
    N457   O458      2.26251      .   S
    Zr73   O458      3.37335  1_455   S
    N457   O459      2.12920  1_554   S
    Zr19   O459      3.25976      .   S
    N457   O460      2.13091      .   S
    Zr43   O460      3.22063      .   S
    N457   O461      2.26118  1_554   S
    Zr94   O461      3.35590      .   S
    N462   O463      2.24291      .   S
    Zr51   O463      3.32597      .   S
    N462   O464      2.15478  1_455   S
    Zr28   O464      3.28202  1_554   S
    N462   O465      2.25905      .   S
    Zr73   O465      3.34923  1_554   S
    N462   O466      2.18475  1_455   S
    Zr6    O466      3.31789      .   S
    N467   O468      2.13091      .   S
    Zr44   O468      3.22063      .   S
    N467   O469      2.26251      .   S
    Zr74   O469      3.37335  1_655   S
    N467   O470      2.12920  1_554   S
    Zr8    O470      3.25976      .   S
    N467   O471      2.26118  1_554   S
    Zr83   O471      3.35590      .   S
    N472   O473      2.26251      .   S
    Zr72   O473      3.37335      .   S
    N472   O474      2.13091      .   S
    Zr42   O474      3.22063      .   S
    N472   O475      2.12920      .   S
    Zr14   O475      3.25976      .   S
    N472   O476      2.26118      .   S
    Zr89   O476      3.35590      .   S
    N477   O478      2.25558      .   S
    Zr47   O478      3.34600      .   S
    N477   O479      2.12628      .   S
    Zr32   O479      3.24265      .   S
    N477   O480      2.10581      .   S
    Zr46   O480      3.20626      .   S
    N477   O481      2.27646      .   S
    Zr16   O481      3.39398      .   S
    N482   O483      0.70812      .   S
    Zr26   O483      1.80622      .   S
    N482   O484      0.72604      .   S
    Zr86   O484      1.86309      .   S
    N482   O485      0.70513      .   S
    Zr56   O485      1.79689      .   S
    N486   O487      2.25558      .   S
    Zr39   O487      3.34600      .   S
    N486   O488      2.12628      .   S
    Zr24   O488      3.24265      .   S
    N486   O489      2.27646  1_554   S
    Zr8    O489      3.39398      .   S
    N486   O490      2.10581  1_554   S
    Zr38   O490      3.20626      .   S
    N491   O492      0.70345      .   S
    Zr24   O492      1.79579      .   S
    N491   O493      0.70755      .   S
    Zr39   O493      1.80776      .   S
    N491   O494      0.70685      .   S
    Zr69   O494      1.80498      .   S
    N495   O496      0.70345      .   S
    Zr28   O496      1.79579      .   S
    N495   O497      0.70755      .   S
    Zr43   O497      1.80776      .   S
    N495   O498      0.70685      .   S
    Zr73   O498      1.80498  1_455   S
    N499   O500      2.26038      .   S
    Zr38   O500      3.36107      .   S
    N499   O501      2.13999      .   S
    Zr53   O501      3.26153      .   S
    N499   O502      2.27815  1_556   S
    Zr25   O502      3.39285      .   S
    N499   O503      2.11698  1_556   S
    Zr85   O503      3.22201      .   S
    N504   O505      2.13001  1_554   S
    Zr83   O505      3.21138      .   S
    N504   O506      2.24947      .   S
    Zr88   O506      3.33185      .   S
    N504   O507      2.15856      .   S
    Zr73   O507      3.31355      .   S
    N504   O508      2.25597  1_554   S
    Zr53   O508      3.38651      .   S
    N509   O510      0.70345      .   S
    Zr29   O510      1.79579      .   S
    N509   O511      0.70755      .   S
    Zr44   O511      1.80776      .   S
    N509   O512      0.70685      .   S
    Zr74   O512      1.80498  1_655   S
    N513   O514      0.51155      .   S
    Zr1    O514      1.53464  1_655   S
    N513   O515      0.51764      .   S
    Zr4    O515      1.55292      .   S
    N513   O516      0.50841      .   S
    Zr5    O516      1.52524      .   S
    N517   O518      0.70812      .   S
    Zr27   O518      1.80622      .   S
    N517   O519      0.72604      .   S
    Zr87   O519      1.86309      .   S
    N517   O520      0.70513      .   S
    Zr57   O520      1.79689      .   S
    N521   O522      0.70345      .   S
    Zr30   O522      1.79579      .   S
    N521   O523      0.70755      .   S
    Zr45   O523      1.80776      .   S
    N521   O524      0.70685      .   S
    Zr75   O524      1.80498      .   S
    N525   O526      0.70513      .   S
    Zr65   O526      1.79689      .   S
    N525   O527      0.70812      .   S
    Zr35   O527      1.80622      .   S
    N525   O528      0.72604      .   S
    Zr95   O528      1.86309      .   S
    N529   O530      0.51774      .   S
    Zr45   O530      1.55322      .   S
    N529   O531      0.51960      .   S
    Zr15   O531      1.55879      .   S
    N529   O532      0.51835      .   S
    Zr75   O532      1.55504      .   S
    N533   O534      2.18475  1_455   S
    Zr14   O534      3.31789      .   S
    N533   O535      2.24291      .   S
    Zr59   O535      3.32597      .   S
    N533   O536      2.15478  1_455   S
    Zr1    O536      3.28202      .   S
    N533   O537      2.25905      .   S
    Zr4    O537      3.34923      .   S
    N538   O539      0.70345      .   S
    Zr31   O539      1.79579  1_545   S
    N538   O540      0.70755      .   S
    Zr46   O540      1.80776      .   S
    N538   O541      0.70685      .   S
    Zr76   O541      1.80498      .   S
    N542   O543      2.15478  1_655   S
    Zr29   O543      3.28202  1_554   S
    N542   O544      2.18475  1_655   S
    Zr0    O544      3.31789      .   S
    N542   O545      2.24291      .   S
    Zr3    O545      3.32597      .   S
    N542   O546      2.25905      .   S
    Zr74   O546      3.34923  1_554   S
    N547   O548      0.70345      .   S
    Zr32   O548      1.79579      .   S
    N547   O549      0.70755      .   S
    Zr47   O549      1.80776      .   S
    N547   O550      0.70685      .   S
    Zr77   O550      1.80498      .   S
    N551   O552      2.15856      .   S
    Zr68   O552      3.31355      .   S
    N551   O553      2.24947      .   S
    Zr83   O553      3.33185      .   S
    N551   O554      2.13001      .   S
    Zr5    O554      3.21138      .   S
    N551   O555      2.25597      .   S
    Zr3    O555      3.38651  1_655   S
    N556   O557      0.51782      .   S
    Zr40   O557      1.55345      .   S
    N556   O558      0.51993      .   S
    Zr25   O558      1.55978      .   S
    N556   O559      0.51690      .   S
    Zr55   O559      1.55071      .   S
    N560   O561      2.27815  1_556   S
    Zr24   O561      3.39285      .   S
    N560   O562      2.26038      .   S
    Zr49   O562      3.36107      .   S
    N560   O563      2.11698  1_556   S
    Zr84   O563      3.22201      .   S
    N560   O564      2.13999      .   S
    Zr64   O564      3.26153      .   S
    N565   O566      0.50990      .   S
    Zr88   O566      1.52970      .   S
    N565   O567      0.51332      .   S
    Zr13   O567      1.53996      .   S
    N565   O568      0.51828      .   S
    Zr58   O568      1.55484  1_655   S
    N569   O570      2.13999      .   S
    Zr52   O570      3.26153      .   S
    N569   O571      2.26038      .   S
    Zr37   O571      3.36107  1_545   S
    N569   O572      2.27815  1_556   S
    Zr28   O572      3.39285  1_655   S
    N569   O573      2.11698  1_556   S
    Zr88   O573      3.22201      .   S
    N574   O575      0.70513      .   S
    Zr61   O575      1.79689      .   S
    N574   O576      0.70812      .   S
    Zr31   O576      1.80622      .   S
    N574   O577      0.72604      .   S
    Zr91   O577      1.86309      .   S
    N578   O579      0.51828      .   S
    Zr3    O579      1.55484  1_655   S
    N578   O580      0.51332      .   S
    Zr0    O580      1.53996      .   S
    N578   O581      0.50990      .   S
    Zr5    O581      1.52970      .   S
    N582   O583      2.11698      .   S
    Zr82   O583      3.22201      .   S
    N582   O584      2.27815      .   S
    Zr22   O584      3.39285      .   S
    N582   O585      2.13999      .   S
    Zr62   O585      3.26153      .   S
    N582   O586      2.26038      .   S
    Zr47   O586      3.36107      .   S
    N587   O588      0.70407      .   S
    Zr54   O588      1.79899      .   S
    N587   O589      0.70490      .   S
    Zr9    O589      1.80234      .   S
    N587   O590      0.70666      .   S
    Zr39   O590      1.80734      .   S
    N591   O592      0.70856      .   S
    Zr79   O592      1.80529      .   S
    N591   O593      0.71164      .   S
    Zr19   O593      1.81498      .   S
    N591   O594      0.73220      .   S
    Zr94   O594      1.88011      .   S
    N595   O596      0.70345      .   S
    Zr34   O596      1.79579      .   S
    N595   O597      0.70755      .   S
    Zr49   O597      1.80776      .   S
    N595   O598      0.70685      .   S
    Zr79   O598      1.80498      .   S
    N599   O600      2.12628      .   S
    Zr27   O600      3.24265      .   S
    N599   O601      2.27646      .   S
    Zr13   O601      3.39398  1_455   S
    N599   O602      2.25558      .   S
    Zr42   O602      3.34600      .   S
    N599   O603      2.10581      .   S
    Zr43   O603      3.20626      .   S
    N604   O605      0.70345      .   S
    Zr35   O605      1.79579  1_545   S
    N604   O606      0.70755      .   S
    Zr50   O606      1.80776      .   S
    N604   O607      0.70685      .   S
    Zr80   O607      1.80498      .   S
    N608   O609      0.51155      .   S
    Zr21   O609      1.53464  1_455   S
    N608   O610      0.50841      .   S
    Zr81   O610      1.52524      .   S
    N608   O611      0.51764      .   S
    Zr66   O611      1.55292      .   S
    N612   O613      2.25597      .   S
    Zr60   O613      3.38651      .   S
    N612   O614      2.13001      .   S
    Zr90   O614      3.21138      .   S
    N612   O615      2.15856      .   S
    Zr78   O615      3.31355      .   S
    N612   O616      2.24947      .   S
    Zr93   O616      3.33185      .   S
    N617   O618      0.70856      .   S
    Zr71   O618      1.80529      .   S
    N617   O619      0.71164      .   S
    Zr11   O619      1.81498      .   S
    N617   O620      0.73220      .   S
    Zr86   O620      1.88011  1_565   S
    N621   O622      0.70345      .   S
    Zr22   O622      1.79579  1_565   S
    N621   O623      0.70755      .   S
    Zr37   O623      1.80776      .   S
    N621   O624      0.70685      .   S
    Zr67   O624      1.80498      .   S
    N625   O626      0.70407      .   S
    Zr58   O626      1.79899      .   S
    N625   O627      0.70490      .   S
    Zr13   O627      1.80234  1_455   S
    N625   O628      0.70666      .   S
    Zr43   O628      1.80734      .   S
    N629   O630      0.70345      .   S
    Zr23   O630      1.79579      .   S
    N629   O631      0.70755      .   S
    Zr38   O631      1.80776      .   S
    N629   O632      0.70685      .   S
    Zr68   O632      1.80498      .   S
    N633   O634      2.25558      .   S
    Zr43   O634      3.34600      .   S
    N633   O635      2.12628      .   S
    Zr28   O635      3.24265      .   S
    N633   O636      2.10581  1_554   S
    Zr50   O636      3.20626      .   S
    N633   O637      2.27646  1_554   S
    Zr20   O637      3.39398      .   S
    N638   O639      2.27646      .   S
    Zr6    O639      3.39398  1_655   S
    N638   O640      2.12628      .   S
    Zr22   O640      3.24265      .   S
    N638   O641      2.25558      .   S
    Zr37   O641      3.34600  1_545   S
    N638   O642      2.10581      .   S
    Zr36   O642      3.20626      .   S
    N643   O644      0.50990      .   S
    Zr82   O644      1.52970      .   S
    N643   O645      0.51332  1_565   S
    Zr7    O645      1.53996      .   S
    N643   O646      0.51828      .   S
    Zr52   O646      1.55484      .   S
    N647   O648      0.70407      .   S
    Zr3    O648      1.79899      .   S
    N647   O649      0.70490      .   S
    Zr0    O649      1.80234  1_455   S
    N647   O650      0.70666      .   S
    Zr2    O650      1.80734      .   S
    N651   O652      0.51993      .   S
    Zr30   O652      1.55978      .   S
    N651   O653      0.51690      .   S
    Zr60   O653      1.55071      .   S
    N651   O654      0.51782      .   S
    Zr45   O654      1.55345      .   S
    N655   O656      0.70407      .   S
    Zr57   O656      1.79899      .   S
    N655   O657      0.70490      .   S
    Zr12   O657      1.80234      .   S
    N655   O658      0.70666      .   S
    Zr42   O658      1.80734      .   S
    N659   O660      0.51782      .   S
    Zr49   O660      1.55345      .   S
    N659   O661      0.51690      .   S
    Zr64   O661      1.55071      .   S
    N659   O662      0.51993      .   S
    Zr34   O662      1.55978      .   S
    N663   O664      2.13091      .   S
    Zr37   O664      3.22063      .   S
    N663   O665      2.26251      .   S
    Zr67   O665      3.37335      .   S
    N663   O666      2.26118      .   S
    Zr5    O666      3.35590      .   S
    N663   O667      2.12920      .   S
    Zr0    O667      3.25976      .   S
    N668   O669      0.70513      .   S
    Zr64   O669      1.79689      .   S
    N668   O670      0.70812      .   S
    Zr34   O670      1.80622      .   S
    N668   O671      0.72604      .   S
    Zr94   O671      1.86309      .   S
    N672   O673      0.70812      .   S
    Zr1    O673      1.80622  1_655   S
    N672   O674      0.72604      .   S
    Zr5    O674      1.86309      .   S
    N672   O675      0.70513      .   S
    Zr3    O675      1.79689  1_655   S
    N676   O677      2.13001      .   S
    Zr91   O677      3.21138      .   S
    N676   O678      2.25597      .   S
    Zr61   O678      3.38651      .   S
    N676   O679      2.24947      .   S
    Zr5    O679      3.33185      .   S
    N676   O680      2.15856      .   S
    Zr4    O680      3.31355      .   S
    N681   O682      0.70856      .   S
    Zr72   O682      1.80529      .   S
    N681   O683      0.71164      .   S
    Zr12   O683      1.81498      .   S
    N681   O684      0.73220      .   S
    Zr87   O684      1.88011      .   S
    N685   O686      2.12628      .   S
    Zr21   O686      3.24265      .   S
    N685   O687      2.10581      .   S
    Zr45   O687      3.20626      .   S
    N685   O688      2.27646      .   S
    Zr15   O688      3.39398      .   S
    N685   O689      2.25558      .   S
    Zr36   O689      3.34600      .   S
    N690   O691      0.51835      .   S
    Zr70   O691      1.55504      .   S
    N690   O692      0.51774      .   S
    Zr40   O692      1.55322      .   S
    N690   O693      0.51960      .   S
    Zr10   O693      1.55879      .   S
    N694   O695      0.70345      .   S
    Zr26   O695      1.79579  1_565   S
    N694   O696      0.70755      .   S
    Zr41   O696      1.80776      .   S
    N694   O697      0.70685      .   S
    Zr71   O697      1.80498      .   S
    N698   O699      2.26038      .   S
    Zr41   O699      3.36107  1_545   S
    N698   O700      2.13999      .   S
    Zr56   O700      3.26153      .   S
    N698   O701      2.11698      .   S
    Zr92   O701      3.22201      .   S
    N698   O702      2.27815      .   S
    Zr32   O702      3.39285      .   S
    N703   O704      0.51155      .   S
    Zr24   O704      1.53464      .   S
    N703   O705      0.50841      .   S
    Zr84   O705      1.52524      .   S
    N703   O706      0.51764      .   S
    Zr69   O706      1.55292      .   S
    N707   O708      0.51835      .   S
    Zr80   O708      1.55504      .   S
    N707   O709      0.51774      .   S
    Zr50   O709      1.55322      .   S
    N707   O710      0.51960      .   S
    Zr20   O710      1.55879      .   S
    N711   O712      0.51774      .   S
    Zr36   O712      1.55322      .   S
    N711   O713      0.51960      .   S
    Zr6    O713      1.55879  1_655   S
    N711   O714      0.51835      .   S
    Zr66   O714      1.55504  1_655   S
    N715   O716      0.70407      .   S
    Zr64   O716      1.79899      .   S
    N715   O717      0.70490      .   S
    Zr19   O717      1.80234      .   S
    N715   O718      0.70666      .   S
    Zr49   O718      1.80734      .   S
    N719   O720      2.24291      .   S
    Zr61   O720      3.32597      .   S
    N719   O721      2.18475  1_545   S
    Zr16   O721      3.31789      .   S
    N719   O722      2.25905      .   S
    Zr67   O722      3.34923      .   S
    N719   O723      2.15478  1_545   S
    Zr22   O723      3.28202      .   S
    N724   O725      0.51993      .   S
    Zr32   O725      1.55978      .   S
    N724   O726      0.51782      .   S
    Zr47   O726      1.55345      .   S
    N724   O727      0.51690      .   S
    Zr62   O727      1.55071      .   S
    N728   O729      0.70513      .   S
    Zr52   O729      1.79689      .   S
    N728   O730      0.70812      .   S
    Zr22   O730      1.80622      .   S
    N728   O731      0.72604      .   S
    Zr82   O731      1.86309      .   S
    N732   O733      0.70856      .   S
    Zr69   O733      1.80529      .   S
    N732   O734      0.71164      .   S
    Zr9    O734      1.81498      .   S
    N732   O735      0.73220      .   S
    Zr84   O735      1.88011      .   S
    N736   O737      0.50990      .   S
    Zr91   O737      1.52970      .   S
    N736   O738      0.51332  1_545   S
    Zr16   O738      1.53996      .   S
    N736   O739      0.51828      .   S
    Zr61   O739      1.55484      .   S
    N740   O741      0.70513      .   S
    Zr58   O741      1.79689  1_655   S
    N740   O742      0.70812      .   S
    Zr28   O742      1.80622  1_655   S
    N740   O743      0.72604      .   S
    Zr88   O743      1.86309      .   S
    N744   O745      0.51960      .   S
    Zr0    O745      1.55879  1_455   S
    N744   O746      0.51835      .   S
    Zr4    O746      1.55504  1_455   S
    N744   O747      0.51774      .   S
    Zr2    O747      1.55322      .   S
    N748   O749      0.70513      .   S
    Zr54   O749      1.79689      .   S
    N748   O750      0.70812      .   S
    Zr24   O750      1.80622      .   S
    N748   O751      0.72604      .   S
    Zr84   O751      1.86309      .   S
    N752   O753      0.70856      .   S
    Zr68   O753      1.80529      .   S
    N752   O754      0.71164      .   S
    Zr8    O754      1.81498      .   S
    N752   O755      0.73220      .   S
    Zr83   O755      1.88011      .   S
    N756   O757      0.51155      .   S
    Zr22   O757      1.53464      .   S
    N756   O758      0.50841      .   S
    Zr82   O758      1.52524      .   S
    N756   O759      0.51764  1_565   S
    Zr67   O759      1.55292      .   S
    N760   O761      0.51774      .   S
    Zr41   O761      1.55322      .   S
    N760   O762      0.51960      .   S
    Zr11   O762      1.55879      .   S
    N760   O763      0.51835      .   S
    Zr71   O763      1.55504      .   S
    N764   O765      0.51960      .   S
    Zr14   O765      1.55879  1_655   S
    N764   O766      0.51774      .   S
    Zr44   O766      1.55322      .   S
    N764   O767      0.51835      .   S
    Zr74   O767      1.55504  1_655   S
    N768   O769      0.50841      .   S
    Zr90   O769      1.52524      .   S
    N768   O770      0.51155      .   S
    Zr30   O770      1.53464      .   S
    N768   O771      0.51764      .   S
    Zr75   O771      1.55292      .   S
    N772   O773      0.70856      .   S
    Zr66   O773      1.80529      .   S
    N772   O774      0.71164      .   S
    Zr6    O774      1.81498      .   S
    N772   O775      0.73220      .   S
    Zr81   O775      1.88011      .   S
    N776   O777      0.70407  1_565   S
    Zr65   O777      1.79899      .   S
    N776   O778      0.70490      .   S
    Zr20   O778      1.80234      .   S
    N776   O779      0.70666      .   S
    Zr50   O779      1.80734      .   S
    N780   O781      0.70407      .   S
    Zr55   O781      1.79899      .   S
    N780   O782      0.70490      .   S
    Zr10   O782      1.80234      .   S
    N780   O783      0.70666      .   S
    Zr40   O783      1.80734      .   S
    N784   O785      0.70407      .   S
    Zr63   O785      1.79899      .   S
    N784   O786      0.70490      .   S
    Zr18   O786      1.80234      .   S
    N784   O787      0.70666      .   S
    Zr48   O787      1.80734      .   S
    N788   O789      0.70856      .   S
    Zr76   O789      1.80529      .   S
    N788   O790      0.71164      .   S
    Zr16   O790      1.81498      .   S
    N788   O791      0.73220      .   S
    Zr91   O791      1.88011  1_545   S
    N792   O793      0.70812      .   S
    Zr32   O793      1.80622      .   S
    N792   O794      0.72604      .   S
    Zr92   O794      1.86309      .   S
    N792   O795      0.70513      .   S
    Zr62   O795      1.79689      .   S
    N796   O797      0.70856      .   S
    Zr73   O797      1.80529      .   S
    N796   O798      0.71164      .   S
    Zr13   O798      1.81498      .   S
    N796   O799      0.73220      .   S
    Zr88   O799      1.88011      .   S
    N800   O801      0.70856      .   S
    Zr74   O801      1.80529      .   S
    N800   O802      0.71164      .   S
    Zr14   O802      1.81498      .   S
    N800   O803      0.73220      .   S
    Zr89   O803      1.88011      .   S
    N804   O805      0.71164      .   S
    Zr0    O805      1.81498      .   S
    N804   O806      0.73220      .   S
    Zr5    O806      1.88011      .   S
    N804   O807      0.70856      .   S
    Zr4    O807      1.80529      .   S
    N808   O809      0.51155      .   S
    Zr32   O809      1.53464      .   S
    N808   O810      0.50841      .   S
    Zr92   O810      1.52524      .   S
    N808   O811      0.51764      .   S
    Zr77   O811      1.55292      .   S
    N812   O813      0.51993      .   S
    Zr33   O813      1.55978      .   S
    N812   O814      0.51782      .   S
    Zr48   O814      1.55345      .   S
    N812   O815      0.51690      .   S
    Zr63   O815      1.55071      .   S
    N816   O817      0.51993      .   S
    Zr21   O817      1.55978      .   S
    N816   O818      0.51782      .   S
    Zr36   O818      1.55345      .   S
    N816   O819      0.51690      .   S
    Zr51   O819      1.55071      .   S
    N820   O821      0.51332      .   S
    Zr6    O821      1.53996      .   S
    N820   O822      0.50990      .   S
    Zr81   O822      1.52970      .   S
    N820   O823      0.51828      .   S
    Zr51   O823      1.55484  1_455   S
    N824   O825      0.70856      .   S
    Zr67   O825      1.80529      .   S
    N824   O826      0.71164      .   S
    Zr7    O826      1.81498      .   S
    N824   O827      0.73220      .   S
    Zr82   O827      1.88011  1_565   S
    N828   O829      0.51155      .   S
    Zr29   O829      1.53464  1_455   S
    N828   O830      0.50841      .   S
    Zr89   O830      1.52524      .   S
    N828   O831      0.51764      .   S
    Zr74   O831      1.55292      .   S
    N832   O833      0.51155      .   S
    Zr28   O833      1.53464  1_655   S
    N832   O834      0.50841      .   S
    Zr88   O834      1.52524      .   S
    N832   O835      0.51764      .   S
    Zr73   O835      1.55292      .   S
    N836   O837      0.51155      .   S
    Zr34   O837      1.53464      .   S
    N836   O838      0.50841      .   S
    Zr94   O838      1.52524      .   S
    N836   O839      0.51764      .   S
    Zr79   O839      1.55292      .   S
    N840   O841      0.51782      .   S
    Zr42   O841      1.55345      .   S
    N840   O842      0.51993      .   S
    Zr27   O842      1.55978      .   S
    N840   O843      0.51690      .   S
    Zr57   O843      1.55071      .   S
    N844   O845      0.70407  1_565   S
    Zr61   O845      1.79899      .   S
    N844   O846      0.70490      .   S
    Zr16   O846      1.80234      .   S
    N844   O847      0.70666      .   S
    Zr46   O847      1.80734      .   S
    N848   O849      0.51332      .   S
    Zr10   O849      1.53996      .   S
    N848   O850      0.50990      .   S
    Zr85   O850      1.52970      .   S
    N848   O851      0.51828      .   S
    Zr55   O851      1.55484      .   S
    N852   O853      0.70407      .   S
    Zr62   O853      1.79899      .   S
    N852   O854      0.70490      .   S
    Zr17   O854      1.80234      .   S
    N852   O855      0.70666      .   S
    Zr47   O855      1.80734      .   S
    N856   O857      0.70856      .   S
    Zr78   O857      1.80529      .   S
    N856   O858      0.71164      .   S
    Zr18   O858      1.81498      .   S
    N856   O859      0.73220      .   S
    Zr93   O859      1.88011      .   S
    N860   O861      0.70856      .   S
    Zr80   O861      1.80529      .   S
    N860   O862      0.71164      .   S
    Zr20   O862      1.81498      .   S
    N860   O863      0.73220      .   S
    Zr95   O863      1.88011  1_545   S
    N864   O865      0.70407      .   S
    Zr53   O865      1.79899      .   S
    N864   O866      0.70490      .   S
    Zr8    O866      1.80234      .   S
    N864   O867      0.70666      .   S
    Zr38   O867      1.80734      .   S
    N868   O869      0.70407  1_545   S
    Zr52   O869      1.79899      .   S
    N868   O870      0.70490      .   S
    Zr7    O870      1.80234      .   S
    N868   O871      0.70666      .   S
    Zr37   O871      1.80734      .   S
    N872   O873      0.70407      .   S
    Zr59   O873      1.79899      .   S
    N872   O874      0.70490      .   S
    Zr14   O874      1.80234  1_655   S
    N872   O875      0.70666      .   S
    Zr44   O875      1.80734      .   S
    N876   O877      0.51332      .   S
    Zr15   O877      1.53996      .   S
    N876   O878      0.50990      .   S
    Zr90   O878      1.52970      .   S
    N876   O879      0.51828      .   S
    Zr60   O879      1.55484      .   S
    N880   O881      0.50990      .   S
    Zr83   O881      1.52970      .   S
    N880   O882      0.51332      .   S
    Zr8    O882      1.53996      .   S
    N880   O883      0.51828      .   S
    Zr53   O883      1.55484      .   S
    N884   O885      0.51774      .   S
    Zr43   O885      1.55322      .   S
    N884   O886      0.51960      .   S
    Zr13   O886      1.55879  1_455   S
    N884   O887      0.51835      .   S
    Zr73   O887      1.55504  1_455   S
    N888   O889      0.51835      .   S
    Zr68   O889      1.55504      .   S
    N888   O890      0.51774      .   S
    Zr38   O890      1.55322      .   S
    N888   O891      0.51960      .   S
    Zr8    O891      1.55879      .   S
    N892   O893      0.51782      .   S
    Zr44   O893      1.55345      .   S
    N892   O894      0.51690      .   S
    Zr59   O894      1.55071      .   S
    N892   O895      0.51993      .   S
    Zr29   O895      1.55978      .   S
    N896   O897      0.51782      .   S
    Zr50   O897      1.55345  1_565   S
    N896   O898      0.51690      .   S
    Zr65   O898      1.55071      .   S
    N896   O899      0.51993      .   S
    Zr35   O899      1.55978      .   S
    N900   O901      0.50990      .   S
    Zr89   O901      1.52970      .   S
    N900   O902      0.51332      .   S
    Zr14   O902      1.53996      .   S
    N900   O903      0.51828      .   S
    Zr59   O903      1.55484  1_455   S
    N904   O905      0.50841      .   S
    Zr87   O905      1.52524      .   S
    N904   O906      0.51155      .   S
    Zr27   O906      1.53464      .   S
    N904   O907      0.51764      .   S
    Zr72   O907      1.55292      .   S
    N908   O909      0.50841      .   S
    Zr91   O909      1.52524      .   S
    N908   O910      0.51155      .   S
    Zr31   O910      1.53464      .   S
    N908   O911      0.51764  1_545   S
    Zr76   O911      1.55292      .   S
    N912   O913      0.51835      .   S
    Zr79   O913      1.55504      .   S
    N912   O914      0.51774      .   S
    Zr49   O914      1.55322      .   S
    N912   O915      0.51960      .   S
    Zr19   O915      1.55879      .   S
    N916   O917      0.51332      .   S
    Zr12   O917      1.53996      .   S
    N916   O918      0.50990      .   S
    Zr87   O918      1.52970      .   S
    N916   O919      0.51828      .   S
    Zr57   O919      1.55484      .   S
    N920   O921      0.51155      .   S
    Zr35   O921      1.53464      .   S
    N920   O922      0.50841      .   S
    Zr95   O922      1.52524      .   S
    N920   O923      0.51764  1_545   S
    Zr80   O923      1.55292      .   S
    N924   O925      0.70407      .   S
    Zr51   O925      1.79899      .   S
    N924   O926      0.70490      .   S
    Zr6    O926      1.80234  1_655   S
    N924   O927      0.70666      .   S
    Zr36   O927      1.80734      .   S
    N928   O929      0.51960      .   S
    Zr18   O929      1.55879      .   S
    N928   O930      0.51835      .   S
    Zr78   O930      1.55504      .   S
    N928   O931      0.51774      .   S
    Zr48   O931      1.55322      .   S
    N932   O933      0.51155      .   S
    Zr33   O933      1.53464      .   S
    N932   O934      0.50841      .   S
    Zr93   O934      1.52524      .   S
    N932   O935      0.51764      .   S
    Zr78   O935      1.55292      .   S
    N936   O937      0.51332      .   S
    Zr17   O937      1.53996      .   S
    N936   O938      0.50990      .   S
    Zr92   O938      1.52970      .   S
    N936   O939      0.51828      .   S
    Zr62   O939      1.55484      .   S
    N940   O941      0.50841      .   S
    Zr86   O941      1.52524      .   S
    N940   O942      0.51155      .   S
    Zr26   O942      1.53464      .   S
    N940   O943      0.51764  1_565   S
    Zr71   O943      1.55292      .   S
    N944   O945      0.50841      .   S
    Zr85   O945      1.52524      .   S
    N944   O946      0.51155      .   S
    Zr25   O946      1.53464      .   S
    N944   O947      0.51764      .   S
    Zr70   O947      1.55292      .   S
    N948   O949      0.70490      .   S
    Zr11   O949      1.80234      .   S
    N948   O950      0.70666      .   S
    Zr41   O950      1.80734      .   S
    N948   O951      0.70407  1_545   S
    Zr56   O951      1.79899      .   S
    N952   O953      0.51835      .   S
    Zr72   O953      1.55504      .   S
    N952   O954      0.51960      .   S
    Zr12   O954      1.55879      .   S
    N952   O955      0.51774      .   S
    Zr42   O955      1.55322      .   S
    N956   O957      0.51782      .   S
    Zr39   O957      1.55345      .   S
    N956   O958      0.51993      .   S
    Zr24   O958      1.55978      .   S
    N956   O959      0.51690      .   S
    Zr54   O959      1.55071      .   S
    N960   O961      0.51332  1_565   S
    Zr11   O961      1.53996      .   S
    N960   O962      0.50990      .   S
    Zr86   O962      1.52970      .   S
    N960   O963      0.51828      .   S
    Zr56   O963      1.55484      .   S
    N964   O965      0.51782      .   S
    Zr37   O965      1.55345  1_545   S
    N964   O966      0.51690      .   S
    Zr52   O966      1.55071      .   S
    N964   O967      0.51993      .   S
    Zr22   O967      1.55978      .   S
    N968   O969      0.51993      .   S
    Zr28   O969      1.55978      .   S
    N968   O970      0.51782      .   S
    Zr43   O970      1.55345      .   S
    N968   O971      0.51690      .   S
    Zr58   O971      1.55071      .   S
    N972   O973      0.50990      .   S
    Zr95   O973      1.52970      .   S
    N972   O974      0.51332  1_545   S
    Zr20   O974      1.53996      .   S
    N972   O975      0.51828      .   S
    Zr65   O975      1.55484      .   S
    N976   O977      0.50990      .   S
    Zr94   O977      1.52970      .   S
    N976   O978      0.51332      .   S
    Zr19   O978      1.53996      .   S
    N976   O979      0.51828      .   S
    Zr64   O979      1.55484      .   S
    N980   O981      0.51782      .   S
    Zr38   O981      1.55345      .   S
    N980   O982      0.51690      .   S
    Zr53   O982      1.55071      .   S
    N980   O983      0.51993      .   S
    Zr23   O983      1.55978      .   S
    N984   O985      0.51835      .   S
    Zr67   O985      1.55504      .   S
    N984   O986      0.51774      .   S
    Zr37   O986      1.55322      .   S
    N984   O987      0.51960      .   S
    Zr7    O987      1.55879      .   S
    N988   O989      0.51332      .   S
    Zr18   O989      1.53996      .   S
    N988   O990      0.50990      .   S
    Zr93   O990      1.52970      .   S
    N988   O991      0.51828      .   S
    Zr63   O991      1.55484      .   S
    N992   O993      0.51993      .   S
    Zr31   O993      1.55978      .   S
    N992   O994      0.51690      .   S
    Zr61   O994      1.55071      .   S
    N992   O995      0.51782      .   S
    Zr46   O995      1.55345  1_565   S
    N996   O997      0.51960      .   S
    Zr16   O997      1.55879      .   S
    N996   O998      0.51774      .   S
    Zr46   O998      1.55322      .   S
    N996   O999      0.51835      .   S
    Zr76   O999      1.55504      .   S
    N1000  O1001     0.51835      .   S
    Zr69   O1001     1.55504      .   S
    N1000  O1002     0.51960      .   S
    Zr9    O1002     1.55879      .   S
    N1000  O1003     0.51774      .   S
    Zr39   O1003     1.55322      .   S
    N1004  O1005     0.51993      .   S
    Zr1    O1005     1.55978      .   S
    N1004  O1006     0.51782      .   S
    Zr2    O1006     1.55345      .   S
    N1004  O1007     0.51690      .   S
    Zr3    O1007     1.55071      .   S
