# CIF file generated by openbabel 2.4.90, see http://openbabel.sf.net
data_I
_chemical_name_common ''
_cell_length_a 39.222
_cell_length_b 26.018
_cell_length_c 27.887
_cell_angle_alpha 90
_cell_angle_beta 90
_cell_angle_gamma 90
_space_group_name_H-M_alt 'P 1'
_space_group_name_Hall 'P 1'
loop_
    _symmetry_equiv_pos_as_xyz
    x,y,z
loop_
    _atom_site_label
    _atom_site_type_symbol
    _atom_site_fract_x
    _atom_site_fract_y
    _atom_site_fract_z
    _atom_site_occupancy
    Zr0     Zr   0.01253   0.19131   0.70101   1.000
    Zr1     Zr   0.98690   0.30022   0.55889   1.000
    Zr2     Zr   0.93974   0.21879   0.63324   1.000
    Zr3     Zr   0.98664   0.31888   0.68418   1.000
    Zr4     Zr   0.01232   0.17290   0.57488   1.000
    Zr5     Zr   0.05965   0.27276   0.62667   1.000
    Zr6     Zr   0.98747   0.80869   0.70101   1.000
    Zr7     Zr   0.26253   0.05869   0.95101   1.000
    Zr8     Zr   0.23747   0.44131   0.95101   1.000
    Zr9     Zr   0.51253   0.19131   0.20101   1.000
    Zr10    Zr   0.48747   0.80869   0.20101   1.000
    Zr11    Zr   0.76253   0.05869   0.45101   1.000
    Zr12    Zr   0.73747   0.44131   0.45101   1.000
    Zr13    Zr   0.01253   0.69131   0.20101   1.000
    Zr14    Zr   0.98747   0.30869   0.20101   1.000
    Zr15    Zr   0.26253   0.55869   0.45101   1.000
    Zr16    Zr   0.23747   0.94131   0.45101   1.000
    Zr17    Zr   0.51253   0.69131   0.70101   1.000
    Zr18    Zr   0.48747   0.30869   0.70101   1.000
    Zr19    Zr   0.76253   0.55869   0.95101   1.000
    Zr20    Zr   0.73747   0.94131   0.95101   1.000
    Zr21    Zr   0.01310   0.69978   0.55889   1.000
    Zr22    Zr   0.23690   0.94978   0.80889   1.000
    Zr23    Zr   0.26310   0.55022   0.80889   1.000
    Zr24    Zr   0.48690   0.30022   0.05889   1.000
    Zr25    Zr   0.51310   0.69978   0.05889   1.000
    Zr26    Zr   0.73690   0.94978   0.30889   1.000
    Zr27    Zr   0.76310   0.55022   0.30889   1.000
    Zr28    Zr   0.98690   0.80022   0.05889   1.000
    Zr29    Zr   0.01310   0.19978   0.05889   1.000
    Zr30    Zr   0.23690   0.44978   0.30889   1.000
    Zr31    Zr   0.26310   0.05022   0.30889   1.000
    Zr32    Zr   0.48690   0.80022   0.55889   1.000
    Zr33    Zr   0.51310   0.19978   0.55889   1.000
    Zr34    Zr   0.73690   0.44978   0.80889   1.000
    Zr35    Zr   0.76310   0.05022   0.80889   1.000
    Zr36    Zr   0.06026   0.78121   0.63324   1.000
    Zr37    Zr   0.18974   0.03121   0.88324   1.000
    Zr38    Zr   0.31026   0.46879   0.88324   1.000
    Zr39    Zr   0.43974   0.21879   0.13324   1.000
    Zr40    Zr   0.56026   0.78121   0.13324   1.000
    Zr41    Zr   0.68974   0.03121   0.38324   1.000
    Zr42    Zr   0.81026   0.46879   0.38324   1.000
    Zr43    Zr   0.93974   0.71879   0.13324   1.000
    Zr44    Zr   0.06026   0.28121   0.13324   1.000
    Zr45    Zr   0.18974   0.53121   0.38324   1.000
    Zr46    Zr   0.31026   0.96879   0.38324   1.000
    Zr47    Zr   0.43974   0.71879   0.63324   1.000
    Zr48    Zr   0.56026   0.28121   0.63324   1.000
    Zr49    Zr   0.68974   0.53121   0.88324   1.000
    Zr50    Zr   0.81026   0.96879   0.88324   1.000
    Zr51    Zr   0.01336   0.68112   0.68418   1.000
    Zr52    Zr   0.23664   0.93112   0.93418   1.000
    Zr53    Zr   0.26336   0.56888   0.93418   1.000
    Zr54    Zr   0.48664   0.31888   0.18418   1.000
    Zr55    Zr   0.51336   0.68112   0.18418   1.000
    Zr56    Zr   0.73664   0.93112   0.43418   1.000
    Zr57    Zr   0.76336   0.56888   0.43418   1.000
    Zr58    Zr   0.98664   0.81888   0.18418   1.000
    Zr59    Zr   0.01336   0.18112   0.18418   1.000
    Zr60    Zr   0.23664   0.43112   0.43418   1.000
    Zr61    Zr   0.26336   0.06888   0.43418   1.000
    Zr62    Zr   0.48664   0.81888   0.68418   1.000
    Zr63    Zr   0.51336   0.18112   0.68418   1.000
    Zr64    Zr   0.73664   0.43112   0.93418   1.000
    Zr65    Zr   0.76336   0.06888   0.93418   1.000
    Zr66    Zr   0.98768   0.82710   0.57488   1.000
    Zr67    Zr   0.26232   0.07710   0.82488   1.000
    Zr68    Zr   0.23768   0.42290   0.82488   1.000
    Zr69    Zr   0.51232   0.17290   0.07488   1.000
    Zr70    Zr   0.48768   0.82710   0.07488   1.000
    Zr71    Zr   0.76232   0.07710   0.32488   1.000
    Zr72    Zr   0.73768   0.42290   0.32488   1.000
    Zr73    Zr   0.01232   0.67290   0.07488   1.000
    Zr74    Zr   0.98768   0.32710   0.07488   1.000
    Zr75    Zr   0.26232   0.57710   0.32488   1.000
    Zr76    Zr   0.23768   0.92290   0.32488   1.000
    Zr77    Zr   0.51232   0.67290   0.57488   1.000
    Zr78    Zr   0.48768   0.32710   0.57488   1.000
    Zr79    Zr   0.76232   0.57710   0.82488   1.000
    Zr80    Zr   0.73768   0.92290   0.82488   1.000
    Zr81    Zr   0.94035   0.72724   0.62667   1.000
    Zr82    Zr   0.30965   0.97724   0.87667   1.000
    Zr83    Zr   0.19035   0.52276   0.87667   1.000
    Zr84    Zr   0.55965   0.27276   0.12667   1.000
    Zr85    Zr   0.44035   0.72724   0.12667   1.000
    Zr86    Zr   0.80965   0.97724   0.37667   1.000
    Zr87    Zr   0.69035   0.52276   0.37667   1.000
    Zr88    Zr   0.05965   0.77276   0.12667   1.000
    Zr89    Zr   0.94035   0.22724   0.12667   1.000
    Zr90    Zr   0.30965   0.47724   0.37667   1.000
    Zr91    Zr   0.19035   0.02276   0.37667   1.000
    Zr92    Zr   0.55965   0.77276   0.62667   1.000
    Zr93    Zr   0.44035   0.22724   0.62667   1.000
    Zr94    Zr   0.80965   0.47724   0.87667   1.000
    Zr95    Zr   0.69035   0.02276   0.87667   1.000
    N96     N    0.60811   0.42521   0.51406   1.000
    O97     O    0.65933   0.43471   0.49036   1.000
    O98     O    0.55887   0.38968   0.54025   1.000
    O99     O    0.58878   0.37026   0.56376   1.000
    O100    O    0.63985   0.46677   0.45857   1.000
    N101    N    0.91674   0.23446   0.85254   1.000
    N102    N    0.75090   0.52901   0.62957   1.000
    O103    O    0.75609   0.54677   0.55120   1.000
    O104    O    0.74528   0.49775   0.70068   1.000
    O105    O    0.74524   0.49416   0.55874   1.000
    O106    O    0.75569   0.55095   0.70765   1.000
    N107    N    0.47856   0.64730   0.11640   1.000
    O108    O    0.48825   0.66028   0.13392   1.000
    O109    O    0.48818   0.66495   0.10260   1.000
    O110    O    0.46999   0.67181   0.11954   1.000
    N111    N    0.39189   0.57479   0.51406   1.000
    O112    O    0.34067   0.56529   0.49036   1.000
    O113    O    0.41122   0.62974   0.56376   1.000
    O114    O    0.44113   0.61032   0.54025   1.000
    O115    O    0.36015   0.53323   0.45857   1.000
    N116    N    0.39379   0.08633   0.26298   1.000
    O117    O    0.36153   0.03574   0.31048   1.000
    O118    O    0.41244   0.13864   0.21168   1.000
    O119    O    0.34214   0.06929   0.27979   1.000
    O120    O    0.44239   0.12699   0.23947   1.000
    N121    N    0.85621   0.33632   0.51298   1.000
    O122    O    0.90786   0.31929   0.52979   1.000
    O123    O    0.83756   0.38864   0.46168   1.000
    O124    O    0.88847   0.28573   0.56048   1.000
    O125    O    0.80761   0.37699   0.48947   1.000
    N126    N    0.60621   0.41368   0.76298   1.000
    O127    O    0.63847   0.46426   0.81048   1.000
    O128    O    0.65786   0.43071   0.77979   1.000
    O129    O    0.58756   0.36137   0.71168   1.000
    O130    O    0.55761   0.37301   0.73947   1.000
    N131    N    0.89189   0.07479   0.51406   1.000
    O132    O    0.94113   0.11032   0.54025   1.000
    O133    O    0.84067   0.06529   0.49036   1.000
    O134    O    0.91122   0.12974   0.56376   1.000
    O135    O    0.86015   0.03323   0.45857   1.000
    N136    N    0.85659   0.85293   0.23941   1.000
    O137    O    0.83758   0.90180   0.29390   1.000
    O138    O    0.88878   0.79719   0.19679   1.000
    O139    O    0.90805   0.83876   0.21760   1.000
    O140    O    0.80778   0.89143   0.26528   1.000
    N141    N    0.35811   0.32479   0.76406   1.000
    O142    O    0.40933   0.31529   0.74036   1.000
    O143    O    0.30887   0.36032   0.79025   1.000
    O144    O    0.38985   0.28323   0.70857   1.000
    O145    O    0.33878   0.37974   0.81376   1.000
    N146    N    0.64341   0.64708   0.23941   1.000
    O147    O    0.61123   0.70281   0.19679   1.000
    O148    O    0.66242   0.59820   0.29390   1.000
    O149    O    0.59195   0.66124   0.21760   1.000
    O150    O    0.69223   0.60857   0.26528   1.000
    N151    N    0.05063   0.07255   0.69762   1.000
    O152    O    0.03626   0.11230   0.70114   1.000
    N153    N    0.02175   0.08165   0.46390   1.000
    N154    N    0.14341   0.14707   0.23941   1.000
    O155    O    0.11122   0.20282   0.19679   1.000
    O156    O    0.09195   0.16124   0.21760   1.000
    O157    O    0.19223   0.10857   0.26528   1.000
    O158    O    0.16242   0.09820   0.29390   1.000
    N159    N    0.79763   0.16240   0.79850   1.000
    O160    O    0.78382   0.12643   0.80180   1.000
    N161    N    0.27144   0.39730   0.36640   1.000
    O162    O    0.26182   0.41495   0.35260   1.000
    O163    O    0.28001   0.42181   0.36954   1.000
    O164    O    0.26176   0.41028   0.38392   1.000
    N165    N    0.00000   0.00000   0.49470   1.000
    N166    N    0.60811   0.92521   0.01406   1.000
    O167    O    0.55887   0.88968   0.04025   1.000
    O168    O    0.65933   0.93471   0.99036   1.000
    O169    O    0.63985   0.96677   0.95857   1.000
    O170    O    0.58878   0.87026   0.06376   1.000
    N171    N    0.85814   0.34203   0.00343   1.000
    O172    O    0.88980   0.29510   0.05448   1.000
    O173    O    0.83860   0.39308   0.95041   1.000
    O174    O    0.90929   0.33459   0.03113   1.000
    O175    O    0.80881   0.37485   0.97526   1.000
    N176    N    0.19937   0.82255   0.44762   1.000
    O177    O    0.21374   0.86230   0.45114   1.000
    N178    N    0.97856   0.64730   0.61640   1.000
    O179    O    0.98818   0.66495   0.60260   1.000
    O180    O    0.96999   0.67181   0.61954   1.000
    O181    O    0.98825   0.66028   0.63392   1.000
    N182    N    0.64186   0.65797   0.50343   1.000
    O183    O    0.61020   0.70490   0.55448   1.000
    O184    O    0.66140   0.60692   0.45041   1.000
    O185    O    0.69119   0.62515   0.47526   1.000
    O186    O    0.59071   0.66541   0.53113   1.000
    N187    N    0.89379   0.08632   0.76298   1.000
    O188    O    0.84214   0.06929   0.77979   1.000
    O189    O    0.86153   0.03574   0.81048   1.000
    O190    O    0.94239   0.12699   0.73947   1.000
    O191    O    0.91244   0.13863   0.71168   1.000
    N192    N    0.14341   0.64708   0.73941   1.000
    O193    O    0.11123   0.70281   0.69679   1.000
    O194    O    0.16242   0.59820   0.79390   1.000
    O195    O    0.09195   0.66124   0.71760   1.000
    O196    O    0.19223   0.60857   0.76528   1.000
    N197    N    0.71218   0.95980   0.37420   1.000
    O198    O    0.70657   0.97765   0.37646   1.000
    O199    O    0.71836   0.95730   0.35787   1.000
    O200    O    0.71830   0.95263   0.38920   1.000
    N201    N    0.22856   0.60270   0.86640   1.000
    O202    O    0.23825   0.58972   0.88392   1.000
    O203    O    0.23818   0.58505   0.85260   1.000
    O204    O    0.21999   0.57819   0.86954   1.000
    N205    N    0.64379   0.16368   0.51298   1.000
    O206    O    0.59214   0.18071   0.52979   1.000
    O207    O    0.69239   0.12301   0.48947   1.000
    O208    O    0.66244   0.11137   0.46168   1.000
    O209    O    0.61153   0.21427   0.56048   1.000
    N210    N    0.64186   0.15797   0.00343   1.000
    O211    O    0.61020   0.20490   0.05448   1.000
    O212    O    0.69119   0.12515   0.97526   1.000
    O213    O    0.66140   0.10692   0.95041   1.000
    O214    O    0.59071   0.16541   0.03113   1.000
    N215    N    0.35814   0.84203   0.00343   1.000
    O216    O    0.33861   0.89308   0.95041   1.000
    O217    O    0.38980   0.79510   0.05448   1.000
    O218    O    0.30881   0.87485   0.97526   1.000
    O219    O    0.40929   0.83459   0.03113   1.000
    N220    N    0.64189   0.67521   0.76406   1.000
    O221    O    0.61015   0.71677   0.70857   1.000
    O222    O    0.69113   0.63968   0.79025   1.000
    O223    O    0.66122   0.62026   0.81376   1.000
    O224    O    0.59067   0.68471   0.74036   1.000
    N225    N    0.24910   0.97099   0.12957   1.000
    O226    O    0.25472   0.00225   0.20068   1.000
    O227    O    0.24431   0.94905   0.20765   1.000
    O228    O    0.24391   0.95323   0.05120   1.000
    O229    O    0.25476   0.00584   0.05874   1.000
    N230    N    0.39186   0.09203   0.75343   1.000
    O231    O    0.44119   0.12485   0.72526   1.000
    O232    O    0.36020   0.04510   0.80448   1.000
    O233    O    0.41139   0.14308   0.70041   1.000
    O234    O    0.34071   0.08459   0.78113   1.000
    N235    N    0.35659   0.35292   0.23941   1.000
    O236    O    0.30778   0.39143   0.26528   1.000
    O237    O    0.40805   0.33876   0.21760   1.000
    O238    O    0.33758   0.40180   0.29390   1.000
    O239    O    0.38878   0.29718   0.19679   1.000
    N240    N    0.97856   0.14730   0.11640   1.000
    O241    O    0.98818   0.16495   0.10260   1.000
    O242    O    0.96999   0.17181   0.11954   1.000
    O243    O    0.98825   0.16028   0.13392   1.000
    N244    N    0.16224   0.55238   0.14826   1.000
    N245    N    0.50000   0.50000   0.27851   1.000
    N246    N    0.89186   0.59203   0.75343   1.000
    O247    O    0.84071   0.58459   0.78113   1.000
    O248    O    0.86020   0.54510   0.80448   1.000
    O249    O    0.94119   0.62485   0.72526   1.000
    O250    O    0.91140   0.64308   0.70041   1.000
    N251    N    0.93750   0.39650   0.39450   1.000
    N252    N    0.99960   0.39250   0.40850   1.000
    N253    N    0.05880   0.58970   0.09440   1.000
    O254    O    0.04033   0.61205   0.08632   1.000
    N255    N    0.83326   0.48446   0.60254   1.000
    N256    N    0.75000   0.25000   0.02851   1.000
    N257    N    0.99910   0.77901   0.37957   1.000
    O258    O    0.99391   0.79677   0.30120   1.000
    O259    O    0.99431   0.80095   0.45765   1.000
    O260    O    0.00472   0.74775   0.45068   1.000
    O261    O    0.00476   0.74416   0.30874   1.000
    N262    N    0.89341   0.10293   0.98941   1.000
    O263    O    0.86122   0.04718   0.94679   1.000
    O264    O    0.91242   0.15180   0.04390   1.000
    O265    O    0.94223   0.14143   0.01528   1.000
    O266    O    0.84195   0.08876   0.96760   1.000
    N267    N    0.89186   0.09203   0.25343   1.000
    O268    O    0.84071   0.08459   0.28113   1.000
    O269    O    0.94119   0.12485   0.22526   1.000
    O270    O    0.86020   0.04510   0.30448   1.000
    O271    O    0.91140   0.14308   0.20041   1.000
    N272    N    0.16674   0.01554   0.10254   1.000
    N273    N    0.47856   0.14730   0.61640   1.000
    O274    O    0.48818   0.16495   0.60260   1.000
    O275    O    0.46999   0.17181   0.61954   1.000
    O276    O    0.48824   0.16028   0.63392   1.000
    N277    N    0.49960   0.89250   0.40850   1.000
    N278    N    0.64379   0.66368   0.01298   1.000
    O279    O    0.59214   0.68071   0.02979   1.000
    O280    O    0.66244   0.61136   0.96168   1.000
    O281    O    0.61153   0.71427   0.06048   1.000
    O282    O    0.69239   0.62301   0.98947   1.000
    N283    N    0.94937   0.92745   0.69762   1.000
    O284    O    0.96374   0.88770   0.70114   1.000
    N285    N    0.85811   0.82479   0.76406   1.000
    O286    O    0.88985   0.78323   0.70857   1.000
    O287    O    0.83878   0.87974   0.81376   1.000
    O288    O    0.90933   0.81529   0.74036   1.000
    O289    O    0.80887   0.86032   0.79025   1.000
    N290    N    0.25000   0.75000   0.02851   1.000
    N291    N    0.25090   0.52901   0.12957   1.000
    O292    O    0.24524   0.49416   0.05874   1.000
    O293    O    0.25609   0.54677   0.05120   1.000
    O294    O    0.24528   0.49775   0.20068   1.000
    O295    O    0.25569   0.55095   0.20765   1.000
    N296    N    0.39379   0.58633   0.76298   1.000
    O297    O    0.44239   0.62699   0.73947   1.000
    O298    O    0.36153   0.53574   0.81048   1.000
    O299    O    0.41244   0.63864   0.71168   1.000
    O300    O    0.34214   0.56929   0.77979   1.000
    N301    N    0.69937   0.32255   0.44762   1.000
    O302    O    0.71374   0.36230   0.45114   1.000
    N303    N    0.75090   0.02901   0.12957   1.000
    O304    O    0.75609   0.04677   0.05120   1.000
    O305    O    0.75569   0.05095   0.20765   1.000
    O306    O    0.74528   0.99775   0.20068   1.000
    O307    O    0.74524   0.99416   0.05874   1.000
    N308    N    0.08776   0.80238   0.39826   1.000
    N309    N    0.14379   0.16367   0.01298   1.000
    O310    O    0.09214   0.18071   0.02979   1.000
    O311    O    0.11153   0.21427   0.06048   1.000
    O312    O    0.19239   0.12301   0.98947   1.000
    O313    O    0.16244   0.11136   0.96168   1.000
    N314    N    0.58776   0.80238   0.89826   1.000
    N315    N    0.10814   0.90797   0.25343   1.000
    O316    O    0.05881   0.87515   0.22526   1.000
    O317    O    0.13980   0.95490   0.30448   1.000
    O318    O    0.08861   0.85692   0.20041   1.000
    O319    O    0.15929   0.91541   0.28113   1.000
    N320    N    0.44267   0.82640   0.13855   1.000
    O321    O    0.45641   0.82360   0.12227   1.000
    O322    O    0.45636   0.81900   0.15380   1.000
    O323    O    0.44458   0.79864   0.13522   1.000
    N324    N    0.39189   0.07479   0.01406   1.000
    O325    O    0.34067   0.06529   0.99036   1.000
    O326    O    0.44113   0.11032   0.04025   1.000
    O327    O    0.41122   0.12974   0.06376   1.000
    O328    O    0.36015   0.03323   0.95857   1.000
    N329    N    0.60814   0.90797   0.75343   1.000
    O330    O    0.58860   0.85692   0.70041   1.000
    O331    O    0.63980   0.95490   0.80448   1.000
    O332    O    0.55881   0.87515   0.72526   1.000
    O333    O    0.65929   0.91541   0.78113   1.000
    N334    N    0.41224   0.69762   0.39826   1.000
    N335    N    0.60621   0.91368   0.26298   1.000
    O336    O    0.65786   0.93071   0.27979   1.000
    O337    O    0.58756   0.86137   0.21168   1.000
    O338    O    0.63847   0.96426   0.31048   1.000
    O339    O    0.55761   0.87301   0.23947   1.000
    N340    N    0.55734   0.67360   0.63855   1.000
    O341    O    0.54359   0.67640   0.62227   1.000
    O342    O    0.54364   0.68100   0.65380   1.000
    O343    O    0.55542   0.70136   0.63522   1.000
    N344    N    0.24910   0.47099   0.62957   1.000
    O345    O    0.24391   0.45323   0.55120   1.000
    O346    O    0.25472   0.50225   0.70068   1.000
    O347    O    0.24431   0.44905   0.70765   1.000
    O348    O    0.25476   0.50584   0.55874   1.000
    N349    N    0.66674   0.51554   0.10254   1.000
    N350    N    0.50483   0.07570   0.65143   1.000
    O351    O    0.51241   0.10843   0.66496   1.000
    N352    N    0.89341   0.60292   0.48941   1.000
    O353    O    0.94223   0.64143   0.51528   1.000
    O354    O    0.84195   0.58876   0.46760   1.000
    O355    O    0.91242   0.65180   0.54390   1.000
    O356    O    0.86122   0.54719   0.44679   1.000
    N357    N    0.49517   0.42430   0.15143   1.000
    O358    O    0.48759   0.39157   0.16496   1.000
    N359    N    0.74910   0.97099   0.62957   1.000
    O360    O    0.75476   0.00584   0.55874   1.000
    O361    O    0.74431   0.94905   0.70765   1.000
    O362    O    0.74391   0.95323   0.55120   1.000
    O363    O    0.75472   0.00225   0.70068   1.000
    N364    N    0.64341   0.14707   0.73941   1.000
    O365    O    0.66242   0.09820   0.79390   1.000
    O366    O    0.59195   0.16124   0.71760   1.000
    O367    O    0.61123   0.20281   0.69679   1.000
    O368    O    0.69223   0.10857   0.76528   1.000
    N369    N    0.20881   0.50995   0.46660   1.000
    O370    O    0.21755   0.48998   0.45480   1.000
    O371    O    0.22402   0.52187   0.45900   1.000
    O372    O    0.20582   0.51500   0.44206   1.000
    N373    N    0.67920   0.76010   0.13270   1.000
    N374    N    0.16224   0.05238   0.64826   1.000
    N375    N    0.25040   0.14250   0.15850   1.000
    N376    N    0.43750   0.39650   0.89450   1.000
    N377    N    0.05063   0.57255   0.19762   1.000
    O378    O    0.03626   0.61230   0.20114   1.000
    N379    N    0.85659   0.35292   0.73941   1.000
    O380    O    0.80778   0.39143   0.76528   1.000
    O381    O    0.83758   0.40180   0.79390   1.000
    O382    O    0.88878   0.29718   0.69679   1.000
    O383    O    0.90805   0.33876   0.71760   1.000
    N384    N    0.60814   0.40797   0.25343   1.000
    O385    O    0.55881   0.37515   0.22526   1.000
    O386    O    0.63980   0.45490   0.30448   1.000
    O387    O    0.65929   0.41541   0.28113   1.000
    O388    O    0.58861   0.35692   0.20041   1.000
    N389    N    0.49910   0.27901   0.37957   1.000
    O390    O    0.49391   0.29677   0.30120   1.000
    O391    O    0.50472   0.24775   0.45068   1.000
    O392    O    0.50476   0.24416   0.30874   1.000
    O393    O    0.49431   0.30095   0.45765   1.000
    N394    N    0.50090   0.72099   0.37957   1.000
    O395    O    0.50569   0.69905   0.45765   1.000
    O396    O    0.49524   0.75584   0.30874   1.000
    O397    O    0.50609   0.70323   0.30120   1.000
    O398    O    0.49528   0.75225   0.45068   1.000
    N399    N    0.58326   0.76554   0.35254   1.000
    N400    N    0.14189   0.67521   0.26406   1.000
    O401    O    0.16122   0.62026   0.31376   1.000
    O402    O    0.19113   0.63968   0.29025   1.000
    O403    O    0.11015   0.71677   0.20857   1.000
    O404    O    0.09067   0.68471   0.24036   1.000
    N405    N    0.80063   0.17745   0.44762   1.000
    O406    O    0.78626   0.13770   0.45114   1.000
    N407    N    0.24960   0.35750   0.15850   1.000
    N408    N    0.66224   0.05238   0.14826   1.000
    N409    N    0.79763   0.66240   0.29850   1.000
    O410    O    0.78382   0.62643   0.30180   1.000
    N411    N    0.35811   0.82479   0.26406   1.000
    O412    O    0.30887   0.86032   0.29025   1.000
    O413    O    0.40933   0.81529   0.24036   1.000
    O414    O    0.33878   0.87974   0.31376   1.000
    O415    O    0.38985   0.78323   0.20857   1.000
    N416    N    0.41674   0.23446   0.35254   1.000
    N417    N    0.00270   0.54240   0.28090   1.000
    N418    N    0.39186   0.59203   0.25343   1.000
    O419    O    0.44119   0.62485   0.22526   1.000
    O420    O    0.36020   0.54510   0.30448   1.000
    O421    O    0.41140   0.64308   0.20041   1.000
    O422    O    0.34071   0.58459   0.28113   1.000
    N423    N    0.50090   0.22099   0.87957   1.000
    O424    O    0.50609   0.20323   0.80120   1.000
    O425    O    0.49528   0.25225   0.95068   1.000
    O426    O    0.50569   0.19905   0.95765   1.000
    O427    O    0.49524   0.25584   0.80874   1.000
    N428    N    0.74910   0.47099   0.12957   1.000
    O429    O    0.74391   0.45323   0.05120   1.000
    O430    O    0.75472   0.50225   0.20068   1.000
    O431    O    0.75476   0.50584   0.05874   1.000
    O432    O    0.74431   0.44905   0.20765   1.000
    N433    N    0.68750   0.35350   0.64450   1.000
    N434    N    0.64189   0.17521   0.26406   1.000
    O435    O    0.69113   0.13968   0.29025   1.000
    O436    O    0.66122   0.12026   0.31376   1.000
    O437    O    0.59067   0.18471   0.24036   1.000
    O438    O    0.61015   0.21677   0.20857   1.000
    N439    N    0.44937   0.42745   0.69762   1.000
    O440    O    0.46374   0.38770   0.70114   1.000
    N441    N    0.92667   0.97480   0.37783   1.000
    N442    N    0.79143   0.46550   0.29745   1.000
    O443    O    0.78256   0.48798   0.30382   1.000
    O444    O    0.79435   0.46762   0.32241   1.000
    O445    O    0.77621   0.45615   0.30782   1.000
    N446    N    0.91674   0.73446   0.35254   1.000
    N447    N    0.72825   0.33165   0.21390   1.000
    N448    N    0.67667   0.77520   0.62783   1.000
    N449    N    0.58776   0.30238   0.39826   1.000
    N450    N    0.18750   0.35350   0.14450   1.000
    N451    N    0.52540   0.26480   0.18120   1.000
    O452    O    0.53396   0.26679   0.16757   1.000
    O453    O    0.52218   0.24643   0.18615   1.000
    O454    O    0.51571   0.27832   0.18195   1.000
    N455    N    0.85814   0.84203   0.50343   1.000
    O456    O    0.80881   0.87485   0.47526   1.000
    O457    O    0.88980   0.79510   0.55448   1.000
    O458    O    0.90929   0.83459   0.53113   1.000
    O459    O    0.83861   0.89308   0.45041   1.000
    N460    N    0.48509   0.67840   0.63840   1.000
    O461    O    0.47375   0.68850   0.63711   1.000
    O462    O    0.49195   0.68163   0.65405   1.000
    O463    O    0.49190   0.67702   0.62252   1.000
    N464    N    0.49910   0.77901   0.87957   1.000
    O465    O    0.50472   0.74775   0.95068   1.000
    O466    O    0.49391   0.79677   0.80120   1.000
    O467    O    0.50476   0.74416   0.80874   1.000
    O468    O    0.49431   0.80095   0.95765   1.000
    N469    N    0.95857   0.21550   0.54745   1.000
    O470    O    0.96744   0.23798   0.55382   1.000
    O471    O    0.95565   0.21762   0.57241   1.000
    O472    O    0.97380   0.20615   0.55782   1.000
    N473    N    0.54144   0.28450   0.54745   1.000
    O474    O    0.53256   0.26202   0.55382   1.000
    O475    O    0.54435   0.28238   0.57241   1.000
    O476    O    0.52621   0.29385   0.55782   1.000
    N477    N    0.04143   0.78450   0.54745   1.000
    O478    O    0.03256   0.76202   0.55382   1.000
    O479    O    0.04435   0.78238   0.57241   1.000
    O480    O    0.02621   0.79385   0.55782   1.000
    N481    N    0.00270   0.04240   0.78090   1.000
    N482    N    0.54144   0.78450   0.04745   1.000
    O483    O    0.53256   0.76202   0.05382   1.000
    O484    O    0.54435   0.78238   0.07241   1.000
    O485    O    0.52621   0.79385   0.05782   1.000
    N486    N    0.57333   0.02520   0.87783   1.000
    N487    N    0.07333   0.52520   0.87783   1.000
    N488    N    0.82080   0.73990   0.13270   1.000
    N489    N    0.55063   0.07255   0.19762   1.000
    O490    O    0.53626   0.11230   0.20114   1.000
    N491    N    0.83776   0.94762   0.64826   1.000
    N492    N    0.91224   0.69762   0.89826   1.000
    N493    N    0.22492   0.50010   0.82660   1.000
    O494    O    0.23447   0.51263   0.82217   1.000
    O495    O    0.21628   0.50577   0.83912   1.000
    O496    O    0.22811   0.48080   0.82617   1.000
    N497    N    0.39341   0.10292   0.48941   1.000
    O498    O    0.34195   0.08876   0.46760   1.000
    O499    O    0.36123   0.04719   0.44679   1.000
    O500    O    0.44222   0.14143   0.51528   1.000
    O501    O    0.41242   0.15180   0.54390   1.000
    N502    N    0.10811   0.92521   0.51406   1.000
    O503    O    0.05887   0.88968   0.54025   1.000
    O504    O    0.15933   0.93471   0.49036   1.000
    O505    O    0.13985   0.96677   0.45857   1.000
    O506    O    0.08878   0.87026   0.56376   1.000
    N507    N    0.10659   0.39707   0.48941   1.000
    O508    O    0.05778   0.35857   0.51528   1.000
    O509    O    0.13878   0.45281   0.44679   1.000
    O510    O    0.15805   0.41124   0.46760   1.000
    O511    O    0.08758   0.34820   0.54390   1.000
    N512    N    0.50483   0.57570   0.15143   1.000
    O513    O    0.51241   0.60843   0.16496   1.000
    N514    N    0.45237   0.91240   0.54850   1.000
    O515    O    0.46618   0.87643   0.55180   1.000
    N516    N    0.30734   0.57640   0.38855   1.000
    O517    O    0.29359   0.57360   0.37227   1.000
    O518    O    0.29364   0.56900   0.40380   1.000
    O519    O    0.30542   0.54864   0.38522   1.000
    N520    N    0.00000   0.00000   0.27851   1.000
    N521    N    0.10621   0.41367   0.26298   1.000
    O522    O    0.13847   0.46426   0.31048   1.000
    O523    O    0.05761   0.37301   0.23947   1.000
    O524    O    0.08756   0.36136   0.21168   1.000
    O525    O    0.15786   0.43071   0.27979   1.000
    N526    N    0.89189   0.57479   0.01406   1.000
    O527    O    0.94113   0.61032   0.04025   1.000
    O528    O    0.84067   0.56529   0.99036   1.000
    O529    O    0.91122   0.62974   0.06376   1.000
    O530    O    0.86015   0.53323   0.95857   1.000
    N531    N    0.94937   0.42745   0.19762   1.000
    O532    O    0.96374   0.38770   0.20114   1.000
    N533    N    0.07080   0.01010   0.88270   1.000
    N534    N    0.33776   0.94762   0.14826   1.000
    N535    N    0.67667   0.27520   0.12783   1.000
    N536    N    0.00090   0.72099   0.87957   1.000
    O537    O    0.00609   0.70323   0.80120   1.000
    O538    O    0.99528   0.75225   0.95068   1.000
    O539    O    0.00569   0.69905   0.95765   1.000
    O540    O    0.99524   0.75584   0.80874   1.000
    N541    N    0.69937   0.82255   0.94762   1.000
    O542    O    0.71374   0.86230   0.95114   1.000
    N543    N    0.10811   0.42521   0.01406   1.000
    O544    O    0.08878   0.37026   0.06376   1.000
    O545    O    0.05887   0.38968   0.04025   1.000
    O546    O    0.15933   0.43471   0.99036   1.000
    O547    O    0.13985   0.46677   0.95857   1.000
    N548    N    0.85811   0.32479   0.26406   1.000
    O549    O    0.80887   0.36032   0.29025   1.000
    O550    O    0.83878   0.37974   0.31376   1.000
    O551    O    0.90933   0.31529   0.24036   1.000
    O552    O    0.88985   0.28323   0.20857   1.000
    N553    N    0.35621   0.83633   0.51298   1.000
    O554    O    0.38847   0.78573   0.56048   1.000
    O555    O    0.40786   0.81929   0.52979   1.000
    O556    O    0.33756   0.88864   0.46168   1.000
    O557    O    0.30761   0.87699   0.48947   1.000
    N558    N    0.19120   0.33970   0.84440   1.000
    O559    O    0.20967   0.36205   0.83632   1.000
    N560    N    0.77145   0.89730   0.36640   1.000
    O561    O    0.76182   0.91495   0.35260   1.000
    O562    O    0.78001   0.92181   0.36954   1.000
    O563    O    0.76176   0.91028   0.38392   1.000
    N564    N    0.00000   0.50000   0.77851   1.000
    N565    N    0.91224   0.19762   0.39826   1.000
    N566    N    0.35621   0.33632   0.01298   1.000
    O567    O    0.38847   0.28573   0.06048   1.000
    O568    O    0.40786   0.31929   0.02979   1.000
    O569    O    0.30761   0.37699   0.98947   1.000
    O570    O    0.33756   0.38864   0.96168   1.000
    N571    N    0.66224   0.55238   0.64826   1.000
    N572    N    0.30880   0.66030   0.34440   1.000
    O573    O    0.29033   0.63795   0.33632   1.000
    N574    N    0.83326   0.98446   0.10254   1.000
    N575    N    0.83776   0.44762   0.14826   1.000
    N576    N    0.94120   0.91030   0.59440   1.000
    O577    O    0.95967   0.88795   0.58632   1.000
    N578    N    0.17667   0.77520   0.12783   1.000
    N579    N    0.74960   0.85750   0.15850   1.000
    N580    N    0.75040   0.64250   0.15850   1.000
    N581    N    0.45857   0.21550   0.04745   1.000
    O582    O    0.46744   0.23798   0.05382   1.000
    O583    O    0.45565   0.21762   0.07241   1.000
    O584    O    0.47380   0.20615   0.05782   1.000
    N585    N    0.95856   0.71550   0.04745   1.000
    O586    O    0.96744   0.73798   0.05382   1.000
    O587    O    0.95565   0.71762   0.07241   1.000
    O588    O    0.97380   0.70615   0.05782   1.000
    N589    N    0.39341   0.60292   0.98941   1.000
    O590    O    0.36123   0.54718   0.94679   1.000
    O591    O    0.34195   0.58876   0.96760   1.000
    O592    O    0.44223   0.64143   0.01528   1.000
    O593    O    0.41242   0.65180   0.04390   1.000
    N594    N    0.69120   0.83970   0.84440   1.000
    O595    O    0.70967   0.86205   0.83632   1.000
    N596    N    0.00483   0.07570   0.15143   1.000
    O597    O    0.01241   0.10843   0.16496   1.000
    N598    N    0.14186   0.65797   0.00343   1.000
    O599    O    0.16140   0.60692   0.95041   1.000
    O600    O    0.11020   0.70490   0.05448   1.000
    O601    O    0.09071   0.66541   0.03113   1.000
    O602    O    0.19119   0.62515   0.97526   1.000
    N603    N    0.69120   0.33970   0.34440   1.000
    O604    O    0.70967   0.36205   0.33632   1.000
    N605    N    0.24517   0.32570   0.40143   1.000
    O606    O    0.23759   0.35843   0.41496   1.000
    N607    N    0.24517   0.82570   0.90143   1.000
    O608    O    0.23759   0.85843   0.91496   1.000
    N609    N    0.04143   0.28450   0.04745   1.000
    O610    O    0.03256   0.26202   0.05382   1.000
    O611    O    0.04435   0.28238   0.07241   1.000
    O612    O    0.02621   0.29385   0.05782   1.000
    N613    N    0.02508   0.25010   0.57660   1.000
    O614    O    0.01554   0.26263   0.57217   1.000
    O615    O    0.02189   0.23080   0.57617   1.000
    O616    O    0.03372   0.25576   0.58912   1.000
    N617    N    0.30063   0.17745   0.94762   1.000
    O618    O    0.28626   0.13770   0.95114   1.000
    N619    N    0.72856   0.60270   0.36640   1.000
    O620    O    0.73818   0.58505   0.35260   1.000
    O621    O    0.71999   0.57819   0.36954   1.000
    O622    O    0.73825   0.58972   0.38392   1.000
    N623    N    0.20857   0.53450   0.29745   1.000
    O624    O    0.21744   0.51202   0.30382   1.000
    O625    O    0.20565   0.53238   0.32241   1.000
    O626    O    0.22379   0.54385   0.30782   1.000
    N627    N    0.72856   0.10270   0.86640   1.000
    O628    O    0.73825   0.08972   0.88392   1.000
    O629    O    0.73818   0.08505   0.85260   1.000
    O630    O    0.71999   0.07819   0.86954   1.000
    N631    N    0.30880   0.16030   0.84440   1.000
    O632    O    0.29033   0.13795   0.83632   1.000
    N633    N    0.23509   0.57160   0.38840   1.000
    O634    O    0.22375   0.56150   0.38711   1.000
    O635    O    0.24195   0.56837   0.40405   1.000
    O636    O    0.24190   0.57298   0.37252   1.000
    N637    N    0.80063   0.67745   0.94762   1.000
    O638    O    0.78626   0.63770   0.95114   1.000
    N639    N    0.00090   0.22099   0.37957   1.000
    O640    O    0.99524   0.25584   0.30874   1.000
    O641    O    0.00609   0.20323   0.30120   1.000
    O642    O    0.99528   0.25225   0.45068   1.000
    O643    O    0.00569   0.19905   0.45765   1.000
    N644    N    0.29144   0.96550   0.29745   1.000
    O645    O    0.28256   0.98798   0.30382   1.000
    O646    O    0.29435   0.96762   0.32241   1.000
    O647    O    0.27621   0.95615   0.30782   1.000
    N648    N    0.99910   0.27901   0.87957   1.000
    O649    O    0.00472   0.24775   0.95068   1.000
    O650    O    0.00476   0.24416   0.80874   1.000
    O651    O    0.99391   0.29677   0.80120   1.000
    O652    O    0.99431   0.30095   0.95765   1.000
    N653    N    0.05880   0.08970   0.59440   1.000
    O654    O    0.04033   0.11205   0.58632   1.000
    N655    N    0.99517   0.42430   0.65143   1.000
    O656    O    0.98759   0.39157   0.66496   1.000
    N657    N    0.08776   0.30238   0.89826   1.000
    N658    N    0.45856   0.71550   0.54745   1.000
    O659    O    0.46744   0.73798   0.55382   1.000
    O660    O    0.45565   0.71762   0.57241   1.000
    O661    O    0.47379   0.70615   0.55782   1.000
    N662    N    0.44937   0.92745   0.19762   1.000
    O663    O    0.46374   0.88770   0.20114   1.000
    N664    N    0.10814   0.40797   0.75343   1.000
    O665    O    0.15929   0.41541   0.78113   1.000
    O666    O    0.13980   0.45490   0.80448   1.000
    O667    O    0.08861   0.35692   0.70041   1.000
    O668    O    0.05881   0.37515   0.72526   1.000
    N669    N    0.53782   0.70980   0.12420   1.000
    O670    O    0.54343   0.72765   0.12646   1.000
    O671    O    0.53164   0.70729   0.10787   1.000
    O672    O    0.53171   0.70263   0.13920   1.000
    N673    N    0.55063   0.57255   0.69762   1.000
    O674    O    0.53626   0.61230   0.70114   1.000
    N675    N    0.92920   0.98990   0.88270   1.000
    N676    N    0.60659   0.39707   0.98941   1.000
    O677    O    0.55778   0.35857   0.01528   1.000
    O678    O    0.63878   0.45281   0.94679   1.000
    O679    O    0.58758   0.34820   0.04390   1.000
    O680    O    0.65805   0.41124   0.96760   1.000
    N681    N    0.02540   0.76480   0.18120   1.000
    O682    O    0.03396   0.76679   0.16757   1.000
    O683    O    0.02218   0.74643   0.18615   1.000
    O684    O    0.01571   0.77832   0.18195   1.000
    N685    N    0.95237   0.41240   0.54850   1.000
    O686    O    0.96618   0.37643   0.55180   1.000
    N687    N    0.10659   0.89707   0.98941   1.000
    O688    O    0.15805   0.91124   0.96760   1.000
    O689    O    0.13878   0.95281   0.94679   1.000
    O690    O    0.05778   0.85857   0.01528   1.000
    O691    O    0.08758   0.84820   0.04390   1.000
    N692    N    0.22855   0.10270   0.36640   1.000
    O693    O    0.23824   0.08972   0.38392   1.000
    O694    O    0.23818   0.08505   0.35260   1.000
    O695    O    0.21999   0.07819   0.36954   1.000
    N696    N    0.02540   0.26480   0.68120   1.000
    O697    O    0.01571   0.27832   0.68195   1.000
    O698    O    0.02218   0.24643   0.68615   1.000
    O699    O    0.03396   0.26679   0.66757   1.000
    N700    N    0.41224   0.19762   0.89826   1.000
    N701    N    0.44120   0.91030   0.09440   1.000
    O702    O    0.45967   0.88795   0.08632   1.000
    N703    N    0.31250   0.64650   0.64450   1.000
    N704    N    0.04763   0.08760   0.04850   1.000
    O705    O    0.03382   0.12357   0.05180   1.000
    N706    N    0.77175   0.66835   0.71390   1.000
    N707    N    0.32333   0.72480   0.12783   1.000
    N708    N    0.25000   0.25000   0.52851   1.000
    N709    N    0.55880   0.08970   0.09440   1.000
    O710    O    0.54033   0.11205   0.08632   1.000
    N711    N    0.99517   0.92430   0.15143   1.000
    O712    O    0.98759   0.89157   0.16496   1.000
    N713    N    0.58326   0.26554   0.85254   1.000
    N714    N    0.20237   0.83760   0.79850   1.000
    O715    O    0.21618   0.87357   0.80180   1.000
    N716    N    0.45237   0.41240   0.04850   1.000
    O717    O    0.46618   0.37643   0.05180   1.000
    N718    N    0.35659   0.85293   0.73941   1.000
    O719    O    0.33758   0.90180   0.79390   1.000
    O720    O    0.30777   0.89143   0.76528   1.000
    O721    O    0.40805   0.83876   0.71760   1.000
    O722    O    0.38877   0.79719   0.69679   1.000
    N723    N    0.45881   0.24005   0.21660   1.000
    O724    O    0.46755   0.26002   0.20480   1.000
    O725    O    0.47402   0.22813   0.20900   1.000
    O726    O    0.45583   0.23500   0.19206   1.000
    N727    N    0.00483   0.57570   0.65143   1.000
    O728    O    0.01241   0.60843   0.66496   1.000
    N729    N    0.30063   0.67745   0.44762   1.000
    O730    O    0.28626   0.63770   0.45114   1.000
    N731    N    0.32080   0.23990   0.13270   1.000
    N732    N    0.80734   0.57640   0.88855   1.000
    O733    O    0.79359   0.57360   0.87227   1.000
    O734    O    0.79364   0.56900   0.90380   1.000
    O735    O    0.80542   0.54863   0.88522   1.000
    N736    N    0.18750   0.85350   0.64450   1.000
    N737    N    0.49517   0.92430   0.65143   1.000
    O738    O    0.48759   0.89157   0.66496   1.000
    N739    N    0.57080   0.01010   0.38270   1.000
    N740    N    0.06250   0.60350   0.39450   1.000
    N741    N    0.82333   0.22480   0.12783   1.000
    N742    N    0.70857   0.53450   0.79745   1.000
    O743    O    0.71744   0.51202   0.80382   1.000
    O744    O    0.70565   0.53238   0.82241   1.000
    O745    O    0.72380   0.54385   0.80782   1.000
    N746    N    0.89379   0.58633   0.26298   1.000
    O747    O    0.84214   0.56929   0.27979   1.000
    O748    O    0.94239   0.62699   0.23947   1.000
    O749    O    0.86153   0.53574   0.31048   1.000
    O750    O    0.91244   0.63864   0.21168   1.000
    N751    N    0.79143   0.96550   0.79745   1.000
    O752    O    0.78256   0.98798   0.80382   1.000
    O753    O    0.79435   0.96762   0.82241   1.000
    O754    O    0.77621   0.95615   0.80782   1.000
    N755    N    0.32333   0.22480   0.62783   1.000
    N756    N    0.97492   0.74990   0.57660   1.000
    O757    O    0.98447   0.73737   0.57217   1.000
    O758    O    0.96628   0.74423   0.58912   1.000
    O759    O    0.97811   0.76920   0.57617   1.000
    N760    N    0.35814   0.34203   0.50343   1.000
    O761    O    0.30881   0.37485   0.47526   1.000
    O762    O    0.33861   0.39308   0.45041   1.000
    O763    O    0.40929   0.33459   0.53113   1.000
    O764    O    0.38980   0.29510   0.55448   1.000
    N765    N    0.80734   0.07640   0.38855   1.000
    O766    O    0.79359   0.07360   0.37227   1.000
    O767    O    0.79364   0.06900   0.40380   1.000
    O768    O    0.80542   0.04863   0.38522   1.000
    N769    N    0.20857   0.03450   0.79745   1.000
    O770    O    0.21744   0.01202   0.80382   1.000
    O771    O    0.20565   0.03238   0.82241   1.000
    O772    O    0.22380   0.04385   0.80782   1.000
    N773    N    0.95882   0.74005   0.21660   1.000
    O774    O    0.96755   0.76002   0.20480   1.000
    O775    O    0.97402   0.72813   0.20900   1.000
    O776    O    0.95583   0.73500   0.19206   1.000
    N777    N    0.55880   0.58970   0.59440   1.000
    O778    O    0.54033   0.61205   0.58632   1.000
    N779    N    0.29144   0.46550   0.79745   1.000
    O780    O    0.28256   0.48798   0.80382   1.000
    O781    O    0.29435   0.46762   0.82241   1.000
    O782    O    0.27621   0.45615   0.80782   1.000
    N783    N    0.85621   0.83633   0.01298   1.000
    O784    O    0.88847   0.78573   0.06048   1.000
    O785    O    0.90786   0.81929   0.02979   1.000
    O786    O    0.83756   0.88863   0.96168   1.000
    O787    O    0.80761   0.87699   0.98947   1.000
    N788    N    0.42667   0.97480   0.87783   1.000
    N789    N    0.50000   0.00000   0.77851   1.000
    N790    N    0.10621   0.91368   0.76298   1.000
    O791    O    0.05761   0.87301   0.73947   1.000
    O792    O    0.15786   0.93071   0.77979   1.000
    O793    O    0.13847   0.96426   0.81048   1.000
    O794    O    0.08756   0.86137   0.71168   1.000
    N795    N    0.27540   0.98520   0.93120   1.000
    O796    O    0.28396   0.98321   0.91757   1.000
    O797    O    0.27218   0.00357   0.93615   1.000
    O798    O    0.26571   0.97168   0.93195   1.000
    N799    N    0.95882   0.24005   0.71660   1.000
    O800    O    0.96755   0.26002   0.70480   1.000
    O801    O    0.97402   0.22813   0.70900   1.000
    O802    O    0.95583   0.23500   0.69206   1.000
    N803    N    0.33776   0.44762   0.64826   1.000
    N804    N    0.25270   0.70760   0.53090   1.000
    N805    N    0.44120   0.41030   0.59440   1.000
    O806    O    0.45967   0.38795   0.58632   1.000
    N807    N    0.77175   0.16835   0.21390   1.000
    N808    N    0.57333   0.52520   0.37783   1.000
    N809    N    0.21218   0.45980   0.37420   1.000
    O810    O    0.21836   0.45730   0.35787   1.000
    O811    O    0.21829   0.45263   0.38920   1.000
    O812    O    0.20657   0.47765   0.37646   1.000
    N813    N    0.75483   0.17430   0.90143   1.000
    O814    O    0.76241   0.14157   0.91496   1.000
    N815    N    0.79119   0.49005   0.46660   1.000
    O816    O    0.78245   0.51002   0.45480   1.000
    O817    O    0.77598   0.47813   0.45900   1.000
    O818    O    0.79418   0.48500   0.44206   1.000
    N819    N    0.25483   0.17430   0.40143   1.000
    O820    O    0.26241   0.14157   0.41496   1.000
    N821    N    0.49960   0.39250   0.90850   1.000
    N822    N    0.80880   0.16030   0.34440   1.000
    O823    O    0.79033   0.13795   0.33632   1.000
    N824    N    0.42667   0.47480   0.37783   1.000
    N825    N    0.54763   0.08760   0.54850   1.000
    O826    O    0.53382   0.12357   0.55180   1.000
    N827    N    0.08326   0.26554   0.35254   1.000
    N828    N    0.71218   0.45980   0.87420   1.000
    O829    O    0.70657   0.47765   0.87646   1.000
    O830    O    0.71830   0.45263   0.88920   1.000
    O831    O    0.71836   0.45730   0.85787   1.000
    N832    N    0.74517   0.32570   0.90143   1.000
    O833    O    0.73759   0.35843   0.91496   1.000
    N834    N    0.14189   0.17521   0.76406   1.000
    O835    O    0.16122   0.12026   0.81376   1.000
    O836    O    0.19113   0.13968   0.79025   1.000
    O837    O    0.11015   0.21677   0.70857   1.000
    O838    O    0.09067   0.18471   0.74036   1.000
    N839    N    0.41674   0.73446   0.85254   1.000
    N840    N    0.77145   0.39730   0.86640   1.000
    O841    O    0.76176   0.41028   0.88392   1.000
    O842    O    0.76182   0.41495   0.85260   1.000
    O843    O    0.78001   0.42181   0.86954   1.000
    N844    N    0.02144   0.35270   0.61640   1.000
    O845    O    0.01182   0.33506   0.60260   1.000
    O846    O    0.03001   0.32819   0.61954   1.000
    O847    O    0.01176   0.33972   0.63392   1.000
    N848    N    0.70237   0.33760   0.79850   1.000
    O849    O    0.71618   0.37357   0.80180   1.000
    N850    N    0.75000   0.75000   0.52851   1.000
    N851    N    0.25483   0.67430   0.90143   1.000
    O852    O    0.26241   0.64157   0.91496   1.000
    N853    N    0.99730   0.95760   0.78090   1.000
    N854    N    0.08326   0.76554   0.85254   1.000
    N855    N    0.14186   0.15797   0.50343   1.000
    O856    O    0.16140   0.10692   0.45041   1.000
    O857    O    0.19119   0.12515   0.47526   1.000
    O858    O    0.11020   0.20490   0.55448   1.000
    O859    O    0.09071   0.16541   0.53113   1.000
    N860    N    0.69267   0.42360   0.38855   1.000
    O861    O    0.70641   0.42640   0.37227   1.000
    O862    O    0.70636   0.43100   0.40380   1.000
    O863    O    0.69458   0.45137   0.38522   1.000
    N864    N    0.14379   0.66368   0.51298   1.000
    O865    O    0.09214   0.68071   0.52979   1.000
    O866    O    0.16244   0.61136   0.46168   1.000
    O867    O    0.19239   0.62301   0.48947   1.000
    O868    O    0.11153   0.71427   0.56048   1.000
    N869    N    0.22825   0.33165   0.71390   1.000
    N870    N    0.16674   0.51554   0.60254   1.000
    N871    N    0.51491   0.82160   0.13840   1.000
    O872    O    0.50810   0.82298   0.12252   1.000
    O873    O    0.52625   0.81150   0.13711   1.000
    O874    O    0.50805   0.81837   0.15405   1.000
    N875    N    0.43750   0.89650   0.39450   1.000
    N876    N    0.70857   0.03450   0.29745   1.000
    O877    O    0.71744   0.01202   0.30382   1.000
    O878    O    0.70565   0.03238   0.32241   1.000
    O879    O    0.72380   0.04385   0.30782   1.000
    N880    N    0.60659   0.89708   0.48941   1.000
    O881    O    0.63878   0.95281   0.44679   1.000
    O882    O    0.65805   0.91124   0.46760   1.000
    O883    O    0.58758   0.84820   0.54390   1.000
    O884    O    0.55778   0.85857   0.51528   1.000
    N885    N    0.54763   0.58760   0.04850   1.000
    O886    O    0.53382   0.62357   0.05180   1.000
    N887    N    0.52508   0.25010   0.07660   1.000
    O888    O    0.51554   0.26263   0.07217   1.000
    O889    O    0.53372   0.25577   0.08912   1.000
    O890    O    0.52189   0.23080   0.07617   1.000
    N891    N    0.76491   0.92840   0.88840   1.000
    O892    O    0.75810   0.92702   0.87252   1.000
    O893    O    0.77625   0.93850   0.88711   1.000
    O894    O    0.75805   0.93163   0.90405   1.000
    N895    N    0.19937   0.32255   0.94762   1.000
    O896    O    0.21374   0.36230   0.95114   1.000
    N897    N    0.01491   0.82160   0.63840   1.000
    O898    O    0.02625   0.81150   0.63711   1.000
    O899    O    0.00805   0.81837   0.65405   1.000
    O900    O    0.00810   0.82298   0.62252   1.000
    N901    N    0.70881   0.50995   0.96660   1.000
    O902    O    0.71755   0.48998   0.95480   1.000
    O903    O    0.72402   0.52187   0.95900   1.000
    O904    O    0.70583   0.51500   0.94206   1.000
    N905    N    0.25090   0.02901   0.62957   1.000
    O906    O    0.25609   0.04677   0.55120   1.000
    O907    O    0.24524   0.99416   0.55874   1.000
    O908    O    0.25569   0.05095   0.70765   1.000
    O909    O    0.24528   0.99775   0.70068   1.000
    N910    N    0.46218   0.79020   0.62420   1.000
    O911    O    0.46836   0.79271   0.60787   1.000
    O912    O    0.45657   0.77235   0.62646   1.000
    O913    O    0.46829   0.79737   0.63920   1.000
    N914    N    0.52175   0.08165   0.96390   1.000
    N915    N    0.27144   0.89730   0.86640   1.000
    O916    O    0.26175   0.91028   0.88392   1.000
    O917    O    0.26182   0.91494   0.85260   1.000
    O918    O    0.28001   0.92181   0.86954   1.000
    N919    N    0.25000   0.75000   0.24470   1.000
    N920    N    0.55734   0.17360   0.13855   1.000
    O921    O    0.54359   0.17640   0.12227   1.000
    O922    O    0.54364   0.18100   0.15380   1.000
    O923    O    0.55542   0.20136   0.13522   1.000
    N924    N    0.92667   0.47480   0.87783   1.000
    N925    N    0.75270   0.70760   0.03090   1.000
    N926    N    0.22460   0.01480   0.43120   1.000
    O927    O    0.21604   0.01679   0.41757   1.000
    O928    O    0.22782   0.99643   0.43615   1.000
    O929    O    0.23429   0.02832   0.43195   1.000
    N930    N    0.02145   0.85270   0.11640   1.000
    O931    O    0.01176   0.83972   0.13392   1.000
    O932    O    0.01182   0.83505   0.10260   1.000
    O933    O    0.03001   0.82819   0.11954   1.000
    N934    N    0.98509   0.17840   0.63840   1.000
    O935    O    0.99195   0.18163   0.65405   1.000
    O936    O    0.99190   0.17703   0.62252   1.000
    O937    O    0.97375   0.18850   0.63711   1.000
    N938    N    0.20237   0.33760   0.29850   1.000
    O939    O    0.21618   0.37357   0.30180   1.000
    N940    N    0.52145   0.35270   0.11640   1.000
    O941    O    0.51176   0.33972   0.13392   1.000
    O942    O    0.51182   0.33505   0.10260   1.000
    O943    O    0.53001   0.32819   0.11954   1.000
    N944    N    0.33326   0.48446   0.10254   1.000
    N945    N    0.19267   0.42360   0.88855   1.000
    O946    O    0.20641   0.42640   0.87227   1.000
    O947    O    0.20636   0.43100   0.90380   1.000
    O948    O    0.19458   0.45137   0.88522   1.000
    N949    N    0.27508   0.99990   0.82660   1.000
    O950    O    0.26553   0.98737   0.82217   1.000
    O951    O    0.28372   0.99423   0.83912   1.000
    O952    O    0.27189   0.01920   0.82617   1.000
    N953    N    0.73509   0.07160   0.38840   1.000
    O954    O    0.72375   0.06150   0.38711   1.000
    O955    O    0.74195   0.06837   0.40405   1.000
    O956    O    0.74190   0.07298   0.37252   1.000
    N957    N    0.93750   0.89650   0.89450   1.000
    N958    N    0.74517   0.82570   0.40143   1.000
    O959    O    0.73759   0.85843   0.41496   1.000
    N960    N    0.01491   0.32160   0.13840   1.000
    O961    O    0.00805   0.31837   0.15405   1.000
    O962    O    0.02625   0.31150   0.13711   1.000
    O963    O    0.00810   0.32298   0.12252   1.000
    N964    N    0.27508   0.49990   0.32660   1.000
    O965    O    0.28372   0.49424   0.33912   1.000
    O966    O    0.26554   0.48737   0.32217   1.000
    O967    O    0.27189   0.51920   0.32617   1.000
    N968    N    0.04763   0.58760   0.54850   1.000
    O969    O    0.03382   0.62357   0.55180   1.000
    N970    N    0.94266   0.82640   0.63855   1.000
    O971    O    0.95641   0.82360   0.62227   1.000
    O972    O    0.95636   0.81900   0.65380   1.000
    O973    O    0.94458   0.79864   0.63522   1.000
    N974    N    0.79119   0.99005   0.96660   1.000
    O975    O    0.78245   0.01002   0.95480   1.000
    O976    O    0.77598   0.97813   0.95900   1.000
    O977    O    0.79418   0.98500   0.94206   1.000
    N978    N    0.99960   0.89250   0.90850   1.000
    N979    N    0.54119   0.75995   0.21660   1.000
    O980    O    0.53245   0.73998   0.20480   1.000
    O981    O    0.52598   0.77187   0.20900   1.000
    O982    O    0.54418   0.76500   0.19206   1.000
    N983    N    0.54119   0.25995   0.71660   1.000
    O984    O    0.53245   0.23998   0.70480   1.000
    O985    O    0.52598   0.27187   0.70900   1.000
    O986    O    0.54418   0.26500   0.69206   1.000
    N987    N    0.19267   0.92360   0.38855   1.000
    O988    O    0.20641   0.92640   0.37227   1.000
    O989    O    0.20636   0.93100   0.40380   1.000
    O990    O    0.19458   0.95137   0.38522   1.000
    N991    N    0.00040   0.60750   0.40850   1.000
    N992    N    0.75040   0.14250   0.65850   1.000
    N993    N    0.17667   0.27520   0.62783   1.000
    N994    N    0.66674   0.01554   0.60254   1.000
    N995    N    0.52145   0.85270   0.61640   1.000
    O996    O    0.51182   0.83505   0.60260   1.000
    O997    O    0.53001   0.82819   0.61954   1.000
    O998    O    0.51176   0.83972   0.63392   1.000
    N999    N    0.75483   0.67430   0.40143   1.000
    O1000   O    0.76241   0.64157   0.41496   1.000
    N1001   N    0.19120   0.83970   0.34440   1.000
    O1002   O    0.20967   0.86205   0.33632   1.000
    N1003   N    0.05734   0.67360   0.13855   1.000
    O1004   O    0.04359   0.67640   0.12227   1.000
    O1005   O    0.04364   0.68100   0.15380   1.000
    O1006   O    0.05542   0.70136   0.13522   1.000
    N1007   N    0.22825   0.83165   0.21390   1.000
    N1008   N    0.17920   0.26010   0.13270   1.000
    N1009   N    0.50040   0.10750   0.40850   1.000
    N1010   N    0.94266   0.32640   0.13855   1.000
    O1011   O    0.95641   0.32360   0.12227   1.000
    O1012   O    0.95636   0.31900   0.15380   1.000
    O1013   O    0.94458   0.29864   0.13522   1.000
    N1014   N    0.94120   0.41030   0.09440   1.000
    O1015   O    0.95967   0.38795   0.08632   1.000
    N1016   N    0.47825   0.41835   0.46390   1.000
    N1017   N    0.29763   0.16240   0.29850   1.000
    O1018   O    0.28382   0.12643   0.30180   1.000
    N1019   N    0.29763   0.66240   0.79850   1.000
    O1020   O    0.28382   0.62643   0.80180   1.000
    N1021   N    0.72825   0.83165   0.71390   1.000
    N1022   N    0.02175   0.58165   0.96390   1.000
    N1023   N    0.05734   0.17360   0.63855   1.000
    O1024   O    0.04364   0.18100   0.65380   1.000
    O1025   O    0.05542   0.20137   0.63522   1.000
    O1026   O    0.04359   0.17640   0.62227   1.000
    N1027   N    0.52508   0.75010   0.57660   1.000
    O1028   O    0.51554   0.76263   0.57217   1.000
    O1029   O    0.53372   0.75577   0.58912   1.000
    O1030   O    0.52189   0.73080   0.57617   1.000
    N1031   N    0.52175   0.58165   0.46390   1.000
    N1032   N    0.68750   0.85350   0.14450   1.000
    N1033   N    0.80880   0.66030   0.84440   1.000
    O1034   O    0.79033   0.63795   0.83632   1.000
    N1035   N    0.53782   0.20980   0.62420   1.000
    O1036   O    0.53164   0.20730   0.60787   1.000
    O1037   O    0.54343   0.22765   0.62646   1.000
    O1038   O    0.53171   0.20263   0.63920   1.000
    N1039   N    0.27175   0.16835   0.71390   1.000
    N1040   N    0.25000   0.25000   0.74470   1.000
    N1041   N    0.03782   0.70980   0.62420   1.000
    O1042   O    0.03164   0.70729   0.60787   1.000
    O1043   O    0.04343   0.72765   0.62646   1.000
    O1044   O    0.03171   0.70263   0.63920   1.000
    N1045   N    0.97460   0.73520   0.68120   1.000
    O1046   O    0.97782   0.75357   0.68615   1.000
    O1047   O    0.96604   0.73321   0.66757   1.000
    O1048   O    0.98429   0.72168   0.68195   1.000
    N1049   N    0.30734   0.07640   0.88855   1.000
    O1050   O    0.29359   0.07360   0.87227   1.000
    O1051   O    0.29364   0.06900   0.90380   1.000
    O1052   O    0.30542   0.04864   0.88522   1.000
    N1053   N    0.74960   0.35750   0.65850   1.000
    N1054   N    0.97492   0.24990   0.07660   1.000
    O1055   O    0.98447   0.23737   0.07217   1.000
    O1056   O    0.96628   0.24424   0.08912   1.000
    O1057   O    0.97811   0.26920   0.07617   1.000
    N1058   N    0.95237   0.91240   0.04850   1.000
    O1059   O    0.96618   0.87643   0.05180   1.000
    N1060   N    0.02508   0.75010   0.07660   1.000
    O1061   O    0.01553   0.76263   0.07217   1.000
    O1062   O    0.03372   0.75577   0.08912   1.000
    O1063   O    0.02189   0.73080   0.07617   1.000
    N1064   N    0.77508   0.49990   0.82660   1.000
    O1065   O    0.76553   0.48737   0.82217   1.000
    O1066   O    0.78372   0.49424   0.83912   1.000
    O1067   O    0.77189   0.51920   0.82617   1.000
    N1068   N    0.78782   0.54020   0.37420   1.000
    O1069   O    0.79343   0.52235   0.37646   1.000
    O1070   O    0.78164   0.54270   0.35787   1.000
    O1071   O    0.78171   0.54737   0.38920   1.000
    N1072   N    0.27175   0.66835   0.21390   1.000
    N1073   N    0.31250   0.14650   0.14450   1.000
    N1074   N    0.29119   0.99005   0.46660   1.000
    O1075   O    0.28245   0.01002   0.45480   1.000
    O1076   O    0.27598   0.97813   0.45900   1.000
    O1077   O    0.29418   0.98500   0.44206   1.000
    N1078   N    0.47825   0.91835   0.96390   1.000
    N1079   N    0.47460   0.73520   0.18120   1.000
    O1080   O    0.47782   0.75357   0.18615   1.000
    O1081   O    0.46604   0.73321   0.16757   1.000
    O1082   O    0.48429   0.72168   0.18195   1.000
    N1083   N    0.00040   0.10750   0.90850   1.000
    N1084   N    0.45881   0.74005   0.71660   1.000
    O1085   O    0.46755   0.76002   0.70480   1.000
    O1086   O    0.47402   0.72813   0.70900   1.000
    O1087   O    0.45582   0.73500   0.69206   1.000
    N1088   N    0.33326   0.98446   0.60254   1.000
    N1089   N    0.44267   0.32640   0.63855   1.000
    O1090   O    0.45641   0.32360   0.62227   1.000
    O1091   O    0.45636   0.31900   0.65380   1.000
    O1092   O    0.44458   0.29864   0.63522   1.000
    N1093   N    0.24960   0.85750   0.65850   1.000
    N1094   N    0.25040   0.64250   0.65850   1.000
    N1095   N    0.69267   0.92360   0.88855   1.000
    O1096   O    0.70641   0.92640   0.87227   1.000
    O1097   O    0.70636   0.93100   0.90380   1.000
    O1098   O    0.69458   0.95136   0.88522   1.000
    N1099   N    0.50040   0.60750   0.90850   1.000
    N1100   N    0.06250   0.10350   0.89450   1.000
    N1101   N    0.56250   0.60350   0.89450   1.000
    N1102   N    0.29119   0.49005   0.96660   1.000
    O1103   O    0.28245   0.51002   0.95480   1.000
    O1104   O    0.27598   0.47813   0.95900   1.000
    O1105   O    0.29418   0.48500   0.94206   1.000
    N1106   N    0.20881   0.00995   0.96660   1.000
    O1107   O    0.21755   0.98998   0.95480   1.000
    O1108   O    0.22402   0.02187   0.95900   1.000
    O1109   O    0.20583   0.01500   0.94206   1.000
    N1110   N    0.97825   0.41835   0.96390   1.000
    N1111   N    0.67920   0.26010   0.63270   1.000
    N1112   N    0.56250   0.10350   0.39450   1.000
    N1113   N    0.82333   0.72480   0.62783   1.000
    N1114   N    0.32080   0.73990   0.63270   1.000
    N1115   N    0.75270   0.20760   0.53090   1.000
    N1116   N    0.00000   0.50000   0.99470   1.000
    N1117   N    0.04119   0.25995   0.21660   1.000
    O1118   O    0.03245   0.23998   0.20480   1.000
    O1119   O    0.02598   0.27187   0.20900   1.000
    O1120   O    0.04418   0.26500   0.19206   1.000
    N1121   N    0.27540   0.48520   0.43120   1.000
    O1122   O    0.27218   0.50357   0.43615   1.000
    O1123   O    0.28396   0.48321   0.41757   1.000
    O1124   O    0.26571   0.47168   0.43195   1.000
    N1125   N    0.22460   0.51480   0.93120   1.000
    O1126   O    0.21604   0.51679   0.91757   1.000
    O1127   O    0.22782   0.49643   0.93615   1.000
    O1128   O    0.23429   0.52832   0.93195   1.000
    N1129   N    0.98509   0.67840   0.13840   1.000
    O1130   O    0.97375   0.68850   0.13711   1.000
    O1131   O    0.99195   0.68163   0.15405   1.000
    O1132   O    0.99190   0.67702   0.12252   1.000
    N1133   N    0.26491   0.42840   0.88840   1.000
    O1134   O    0.25810   0.42703   0.87252   1.000
    O1135   O    0.27625   0.43850   0.88711   1.000
    O1136   O    0.25805   0.43163   0.90405   1.000
    N1137   N    0.99730   0.45760   0.28090   1.000
    N1138   N    0.49730   0.45760   0.78090   1.000
    N1139   N    0.50270   0.54240   0.78090   1.000
    N1140   N    0.50270   0.04240   0.28090   1.000
    N1141   N    0.03782   0.20980   0.12420   1.000
    O1142   O    0.04343   0.22765   0.12646   1.000
    O1143   O    0.03170   0.20263   0.13920   1.000
    O1144   O    0.03164   0.20730   0.10787   1.000
    N1145   N    0.24730   0.29240   0.03090   1.000
    N1146   N    0.78782   0.04020   0.87420   1.000
    O1147   O    0.79343   0.02235   0.87646   1.000
    O1148   O    0.78171   0.04737   0.88920   1.000
    O1149   O    0.78164   0.04270   0.85787   1.000
    N1150   N    0.82080   0.23990   0.63270   1.000
    N1151   N    0.81250   0.14650   0.64450   1.000
    N1152   N    0.97460   0.23520   0.18120   1.000
    O1153   O    0.96604   0.23321   0.16757   1.000
    O1154   O    0.97782   0.25357   0.18615   1.000
    O1155   O    0.98429   0.22168   0.18195   1.000
    N1156   N    0.70237   0.83760   0.29850   1.000
    O1157   O    0.71618   0.87357   0.30180   1.000
    N1158   N    0.81250   0.64650   0.14450   1.000
    N1159   N    0.72492   0.50010   0.32660   1.000
    O1160   O    0.71628   0.50576   0.33912   1.000
    O1161   O    0.73447   0.51263   0.32217   1.000
    O1162   O    0.72811   0.48080   0.32617   1.000
    N1163   N    0.22492   0.00010   0.32660   1.000
    O1164   O    0.21628   0.00576   0.33912   1.000
    O1165   O    0.23446   0.01263   0.32217   1.000
    O1166   O    0.22811   0.98080   0.32617   1.000
    N1167   N    0.07333   0.02520   0.37783   1.000
    N1168   N    0.73509   0.57160   0.88840   1.000
    O1169   O    0.74190   0.57298   0.87252   1.000
    O1170   O    0.72375   0.56150   0.88711   1.000
    O1171   O    0.74195   0.56837   0.90405   1.000
    N1172   N    0.07080   0.51010   0.38270   1.000
    N1173   N    0.72460   0.51480   0.43120   1.000
    O1174   O    0.72782   0.49643   0.43615   1.000
    O1175   O    0.71604   0.51679   0.41757   1.000
    O1176   O    0.73429   0.52832   0.43195   1.000
    N1177   N    0.72492   0.00010   0.82660   1.000
    O1178   O    0.73447   0.01263   0.82217   1.000
    O1179   O    0.71628   0.00576   0.83912   1.000
    O1180   O    0.72811   0.98080   0.82617   1.000
    N1181   N    0.04119   0.75995   0.71660   1.000
    O1182   O    0.03245   0.73998   0.70480   1.000
    O1183   O    0.02598   0.77187   0.70900   1.000
    O1184   O    0.04418   0.76500   0.69206   1.000
    N1185   N    0.97825   0.91835   0.46390   1.000
    N1186   N    0.51491   0.32160   0.63840   1.000
    O1187   O    0.50805   0.31837   0.65405   1.000
    O1188   O    0.50810   0.32298   0.62252   1.000
    O1189   O    0.52625   0.31150   0.63711   1.000
    N1190   N    0.47492   0.24990   0.57660   1.000
    O1191   O    0.48447   0.23737   0.57217   1.000
    O1192   O    0.46628   0.24424   0.58912   1.000
    O1193   O    0.47811   0.26920   0.57617   1.000
    N1194   N    0.52540   0.76480   0.68120   1.000
    O1195   O    0.52218   0.74643   0.68615   1.000
    O1196   O    0.53396   0.76679   0.66757   1.000
    O1197   O    0.51571   0.77832   0.68195   1.000
    N1198   N    0.77508   0.99990   0.32660   1.000
    O1199   O    0.78372   0.99423   0.33912   1.000
    O1200   O    0.76553   0.98737   0.32217   1.000
    O1201   O    0.77189   0.01920   0.32617   1.000
    N1202   N    0.42920   0.98990   0.38270   1.000
    N1203   N    0.47492   0.74990   0.07660   1.000
    O1204   O    0.46628   0.74423   0.08912   1.000
    O1205   O    0.48446   0.73737   0.07217   1.000
    O1206   O    0.47811   0.76920   0.07617   1.000
    N1207   N    0.70881   0.00995   0.46660   1.000
    O1208   O    0.72402   0.02187   0.45900   1.000
    O1209   O    0.70583   0.01500   0.44206   1.000
    O1210   O    0.71755   0.98998   0.45480   1.000
    N1211   N    0.50000   0.00000   0.99470   1.000
    N1212   N    0.76491   0.42840   0.38840   1.000
    O1213   O    0.75810   0.42702   0.37252   1.000
    O1214   O    0.75805   0.43163   0.40405   1.000
    O1215   O    0.77625   0.43850   0.38711   1.000
    N1216   N    0.42920   0.48990   0.88270   1.000
    N1217   N    0.50000   0.50000   0.49470   1.000
    N1218   N    0.75000   0.75000   0.74470   1.000
    N1219   N    0.46218   0.29020   0.12420   1.000
    O1220   O    0.45657   0.27235   0.12646   1.000
    O1221   O    0.46836   0.29271   0.10787   1.000
    O1222   O    0.46830   0.29737   0.13920   1.000
    N1223   N    0.74730   0.29240   0.53090   1.000
    N1224   N    0.77540   0.98520   0.43120   1.000
    O1225   O    0.77218   0.00357   0.43615   1.000
    O1226   O    0.78396   0.98321   0.41757   1.000
    O1227   O    0.76571   0.97168   0.43195   1.000
    N1228   N    0.21218   0.95980   0.87420   1.000
    O1229   O    0.20657   0.97765   0.87646   1.000
    O1230   O    0.21830   0.95263   0.88920   1.000
    O1231   O    0.21836   0.95729   0.85787   1.000
    N1232   N    0.96218   0.79020   0.12420   1.000
    O1233   O    0.96836   0.79271   0.10787   1.000
    O1234   O    0.95657   0.77235   0.12646   1.000
    O1235   O    0.96830   0.79737   0.13920   1.000
    N1236   N    0.57080   0.51010   0.88270   1.000
    N1237   N    0.17920   0.76010   0.63270   1.000
    N1238   N    0.74730   0.79240   0.03090   1.000
    N1239   N    0.72460   0.01480   0.93120   1.000
    O1240   O    0.71604   0.01679   0.91757   1.000
    O1241   O    0.72782   0.99643   0.93615   1.000
    O1242   O    0.73429   0.02832   0.93195   1.000
    N1243   N    0.77540   0.48520   0.93120   1.000
    O1244   O    0.78396   0.48321   0.91757   1.000
    O1245   O    0.77218   0.50357   0.93615   1.000
    O1246   O    0.76571   0.47168   0.93195   1.000
    N1247   N    0.49730   0.95760   0.28090   1.000
    N1248   N    0.25270   0.20760   0.03090   1.000
    N1249   N    0.28782   0.54020   0.87420   1.000
    O1250   O    0.29343   0.52235   0.87646   1.000
    O1251   O    0.28170   0.54737   0.88920   1.000
    O1252   O    0.28164   0.54270   0.85787   1.000
    N1253   N    0.23509   0.07160   0.88840   1.000
    O1254   O    0.24190   0.07298   0.87252   1.000
    O1255   O    0.22375   0.06150   0.88711   1.000
    O1256   O    0.24195   0.06837   0.90405   1.000
    N1257   N    0.75000   0.25000   0.24470   1.000
    N1258   N    0.47460   0.23520   0.68120   1.000
    O1259   O    0.47782   0.25357   0.68615   1.000
    O1260   O    0.46604   0.23321   0.66757   1.000
    O1261   O    0.48429   0.22168   0.68195   1.000
    N1262   N    0.28782   0.04020   0.37420   1.000
    O1263   O    0.28164   0.04270   0.35787   1.000
    O1264   O    0.28170   0.04737   0.38920   1.000
    O1265   O    0.29343   0.02235   0.37646   1.000
    N1266   N    0.26491   0.92840   0.38840   1.000
    O1267   O    0.25805   0.93163   0.40405   1.000
    O1268   O    0.27625   0.93850   0.38711   1.000
    O1269   O    0.25810   0.92703   0.37252   1.000
    N1270   N    0.24730   0.79240   0.53090   1.000
    N1271   N    0.92920   0.48990   0.38270   1.000
    N1272   N    0.48509   0.17840   0.13840   1.000
    O1273   O    0.49190   0.17702   0.12252   1.000
    O1274   O    0.49195   0.18163   0.15405   1.000
    O1275   O    0.47375   0.18850   0.13711   1.000
    N1276   N    0.96218   0.29020   0.62420   1.000
    O1277   O    0.96836   0.29270   0.60787   1.000
    O1278   O    0.95657   0.27235   0.62646   1.000
    O1279   O    0.96830   0.29737   0.63920   1.000
loop_
    _geom_bond_atom_site_label_1
    _geom_bond_atom_site_label_2
    _geom_bond_distance
    _geom_bond_site_symmetry_2
    _ccdc_geom_bond_type
    N96    O97       2.12920      .   S
    Zr12   O97       3.25976      .   S
    N96    O98       2.26251      .   S
    Zr78   O98       3.37335      .   S
    N96    O99       2.13091      .   S
    Zr48   O99       3.22063      .   S
    N96    O100      2.26118      .   S
    Zr87   O100      3.35590      .   S
    N102   O103      2.24291      .   S
    Zr57   O103      3.32597      .   S
    N102   O104      2.15478      .   S
    Zr34   O104      3.28202      .   S
    N102   O105      2.18475      .   S
    Zr12   O105      3.31789      .   S
    N102   O106      2.25905      .   S
    Zr79   O106      3.34923      .   S
    N107   O108      0.70513      .   S
    Zr55   O108      1.79689      .   S
    N107   O109      0.70812      .   S
    Zr25   O109      1.80622      .   S
    N107   O110      0.72604      .   S
    Zr85   O110      1.86309      .   S
    N111   O112      2.12920      .   S
    Zr15   O112      3.25976      .   S
    N111   O113      2.13091      .   S
    Zr47   O113      3.22063      .   S
    N111   O114      2.26251      .   S
    Zr77   O114      3.37335      .   S
    N111   O115      2.26118      .   S
    Zr90   O115      3.35590      .   S
    N116   O117      2.25558      .   S
    Zr46   O117      3.34600  1_565   S
    N116   O118      2.10581      .   S
    Zr39   O118      3.20626      .   S
    N116   O119      2.12628      .   S
    Zr31   O119      3.24265      .   S
    N116   O120      2.27646      .   S
    Zr9    O120      3.39398      .   S
    N121   O122      2.12628      .   S
    Zr1    O122      3.24265      .   S
    N121   O123      2.10581      .   S
    Zr42   O123      3.20626      .   S
    N121   O124      2.25558      .   S
    Zr2    O124      3.34600      .   S
    N121   O125      2.27646      .   S
    Zr12   O125      3.39398      .   S
    N126   O127      2.25558      .   S
    Zr49   O127      3.34600      .   S
    N126   O128      2.12628      .   S
    Zr34   O128      3.24265      .   S
    N126   O129      2.10581      .   S
    Zr48   O129      3.20626      .   S
    N126   O130      2.27646      .   S
    Zr18   O130      3.39398      .   S
    N131   O132      2.26251      .   S
    Zr4    O132      3.37335  1_455   S
    N131   O133      2.12920      .   S
    Zr11   O133      3.25976      .   S
    N131   O134      2.13091      .   S
    Zr2    O134      3.22063      .   S
    N131   O135      2.26118      .   S
    Zr86   O135      3.35590  1_565   S
    N136   O137      2.11698      .   S
    Zr86   O137      3.22201      .   S
    N136   O138      2.26038      .   S
    Zr43   O138      3.36107      .   S
    N136   O139      2.13999      .   S
    Zr58   O139      3.26153      .   S
    N136   O140      2.27815      .   S
    Zr26   O140      3.39285      .   S
    N141   O142      2.12920      .   S
    Zr18   O142      3.25976      .   S
    N141   O143      2.26251      .   S
    Zr68   O143      3.37335      .   S
    N141   O144      2.26118      .   S
    Zr93   O144      3.35590      .   S
    N141   O145      2.13091      .   S
    Zr38   O145      3.22063      .   S
    N146   O147      2.26038      .   S
    Zr40   O147      3.36107      .   S
    N146   O148      2.11698      .   S
    Zr87   O148      3.22201      .   S
    N146   O149      2.13999      .   S
    Zr55   O149      3.26153      .   S
    N146   O150      2.27815      .   S
    Zr27   O150      3.39285      .   S
    N151   O152      1.18188      .   S
    Zr0    O152      2.25653      .   S
    N154   O155      2.26038      .   S
    Zr44   O155      3.36107      .   S
    N154   O156      2.13999      .   S
    Zr59   O156      3.26153      .   S
    N154   O157      2.27815      .   S
    Zr31   O157      3.39285      .   S
    N154   O158      2.11698      .   S
    Zr91   O158      3.22201      .   S
    N159   O160      1.08535      .   S
    Zr35   O160      2.15197      .   S
    N161   O162      0.70812      .   S
    Zr30   O162      1.80622      .   S
    N161   O163      0.72604      .   S
    Zr90   O163      1.86309      .   S
    N161   O164      0.70513      .   S
    Zr60   O164      1.79689      .   S
    N166   O167      2.26251      .   S
    Zr70   O167      3.37335      .   S
    N166   O168      2.12920  1_554   S
    Zr20   O168      3.25976      .   S
    N166   O169      2.26118  1_554   S
    Zr95   O169      3.35590  1_545   S
    N166   O170      2.13091      .   S
    Zr40   O170      3.22063      .   S
    N171   O172      2.24947      .   S
    Zr89   O172      3.33185      .   S
    N171   O173      2.13001  1_554   S
    Zr94   O173      3.21138      .   S
    N171   O174      2.15856      .   S
    Zr74   O174      3.31355      .   S
    N171   O175      2.25597  1_554   S
    Zr64   O175      3.38651      .   S
    N176   O177      1.18188      .   S
    Zr16   O177      2.25653      .   S
    N178   O179      0.70812      .   S
    Zr21   O179      1.80622  1_455   S
    N178   O180      0.72604      .   S
    Zr81   O180      1.86309      .   S
    N178   O181      0.70513      .   S
    Zr51   O181      1.79689  1_455   S
    N182   O183      2.24947      .   S
    Zr92   O183      3.33185      .   S
    N182   O184      2.13001      .   S
    Zr87   O184      3.21138      .   S
    N182   O185      2.25597      .   S
    Zr57   O185      3.38651      .   S
    N182   O186      2.15856      .   S
    Zr77   O186      3.31355      .   S
    N187   O188      2.12628      .   S
    Zr35   O188      3.24265      .   S
    N187   O189      2.25558      .   S
    Zr50   O189      3.34600  1_565   S
    N187   O190      2.27646      .   S
    Zr0    O190      3.39398  1_455   S
    N187   O191      2.10581      .   S
    Zr2    O191      3.20626      .   S
    N192   O193      2.26038      .   S
    Zr36   O193      3.36107      .   S
    N192   O194      2.11698      .   S
    Zr83   O194      3.22201      .   S
    N192   O195      2.13999      .   S
    Zr51   O195      3.26153      .   S
    N192   O196      2.27815      .   S
    Zr23   O196      3.39285      .   S
    N197   O198      0.51782      .   S
    Zr41   O198      1.55345  1_545   S
    N197   O199      0.51993      .   S
    Zr26   O199      1.55978      .   S
    N197   O200      0.51690      .   S
    Zr56   O200      1.55071      .   S
    N201   O202      0.70513      .   S
    Zr53   O202      1.79689      .   S
    N201   O203      0.70812      .   S
    Zr23   O203      1.80622      .   S
    N201   O204      0.72604      .   S
    Zr83   O204      1.86309      .   S
    N205   O206      2.12628      .   S
    Zr33   O206      3.24265      .   S
    N205   O207      2.27646      .   S
    Zr11   O207      3.39398      .   S
    N205   O208      2.10581      .   S
    Zr41   O208      3.20626      .   S
    N205   O209      2.25558      .   S
    Zr48   O209      3.34600      .   S
    N210   O211      2.24947      .   S
    Zr84   O211      3.33185      .   S
    N210   O212      2.25597  1_554   S
    Zr65   O212      3.38651      .   S
    N210   O213      2.13001  1_554   S
    Zr95   O213      3.21138      .   S
    N210   O214      2.15856      .   S
    Zr69   O214      3.31355      .   S
    N215   O216      2.13001  1_554   S
    Zr82   O216      3.21138      .   S
    N215   O217      2.24947      .   S
    Zr85   O217      3.33185      .   S
    N215   O218      2.25597  1_554   S
    Zr52   O218      3.38651      .   S
    N215   O219      2.15856      .   S
    Zr70   O219      3.31355      .   S
    N220   O221      2.26118      .   S
    Zr92   O221      3.35590      .   S
    N220   O222      2.26251      .   S
    Zr79   O222      3.37335      .   S
    N220   O223      2.13091      .   S
    Zr49   O223      3.22063      .   S
    N220   O224      2.12920      .   S
    Zr17   O224      3.25976      .   S
    N225   O226      2.15478  1_565   S
    Zr31   O226      3.28202      .   S
    N225   O227      2.25905      .   S
    Zr76   O227      3.34923      .   S
    N225   O228      2.24291      .   S
    Zr52   O228      3.32597  1_556   S
    N225   O229      2.18475  1_565   S
    Zr7    O229      3.31789  1_556   S
    N230   O231      2.25597      .   S
    Zr63   O231      3.38651      .   S
    N230   O232      2.24947      .   S
    Zr82   O232      3.33185  1_565   S
    N230   O233      2.13001      .   S
    Zr93   O233      3.21138      .   S
    N230   O234      2.15856      .   S
    Zr67   O234      3.31355      .   S
    N235   O236      2.27815      .   S
    Zr30   O236      3.39285      .   S
    N235   O237      2.13999      .   S
    Zr54   O237      3.26153      .   S
    N235   O238      2.11698      .   S
    Zr90   O238      3.22201      .   S
    N235   O239      2.26038      .   S
    Zr39   O239      3.36107      .   S
    N240   O241      0.70812      .   S
    Zr29   O241      1.80622  1_455   S
    N240   O242      0.72604      .   S
    Zr89   O242      1.86309      .   S
    N240   O243      0.70513      .   S
    Zr59   O243      1.79689  1_455   S
    N246   O247      2.15856      .   S
    Zr79   O247      3.31355      .   S
    N246   O248      2.24947      .   S
    Zr94   O248      3.33185      .   S
    N246   O249      2.25597      .   S
    Zr51   O249      3.38651  1_455   S
    N246   O250      2.13001      .   S
    Zr81   O250      3.21138      .   S
    N253   O254      0.95589      .   S
    Zr73   O254      1.95326      .   S
    N257   O258      2.24291      .   S
    Zr58   O258      3.32597      .   S
    N257   O259      2.25905      .   S
    Zr66   O259      3.34923      .   S
    N257   O260      2.15478  1_655   S
    Zr21   O260      3.28202      .   S
    N257   O261      2.18475  1_655   S
    Zr13   O261      3.31789      .   S
    N262   O263      2.26038      .   S
    Zr50   O263      3.36107  1_565   S
    N262   O264      2.11698  1_556   S
    Zr89   O264      3.22201      .   S
    N262   O265      2.27815  1_556   S
    Zr29   O265      3.39285  1_455   S
    N262   O266      2.13999      .   S
    Zr65   O266      3.26153      .   S
    N267   O268      2.15856      .   S
    Zr71   O268      3.31355      .   S
    N267   O269      2.25597      .   S
    Zr59   O269      3.38651  1_455   S
    N267   O270      2.24947      .   S
    Zr86   O270      3.33185  1_565   S
    N267   O271      2.13001      .   S
    Zr89   O271      3.21138      .   S
    N273   O274      0.70812      .   S
    Zr33   O274      1.80622      .   S
    N273   O275      0.72604      .   S
    Zr93   O275      1.86309      .   S
    N273   O276      0.70513      .   S
    Zr63   O276      1.79689      .   S
    N278   O279      2.12628      .   S
    Zr25   O279      3.24265      .   S
    N278   O280      2.10581  1_554   S
    Zr49   O280      3.20626      .   S
    N278   O281      2.25558      .   S
    Zr40   O281      3.34600      .   S
    N278   O282      2.27646  1_554   S
    Zr19   O282      3.39398      .   S
    N283   O284      1.18188      .   S
    Zr6    O284      2.25653      .   S
    N285   O286      2.26118      .   S
    Zr81   O286      3.35590      .   S
    N285   O287      2.13091      .   S
    Zr50   O287      3.22063      .   S
    N285   O288      2.12920      .   S
    Zr6    O288      3.25976      .   S
    N285   O289      2.26251      .   S
    Zr80   O289      3.37335      .   S
    N291   O292      2.18475      .   S
    Zr8    O292      3.31789  1_556   S
    N291   O293      2.24291      .   S
    Zr53   O293      3.32597  1_556   S
    N291   O294      2.15478      .   S
    Zr30   O294      3.28202      .   S
    N291   O295      2.25905      .   S
    Zr75   O295      3.34923      .   S
    N296   O297      2.27646      .   S
    Zr17   O297      3.39398      .   S
    N296   O298      2.25558      .   S
    Zr38   O298      3.34600      .   S
    N296   O299      2.10581      .   S
    Zr47   O299      3.20626      .   S
    N296   O300      2.12628      .   S
    Zr23   O300      3.24265      .   S
    N301   O302      1.18188      .   S
    Zr12   O302      2.25653      .   S
    N303   O304      2.24291      .   S
    Zr65   O304      3.32597  1_556   S
    N303   O305      2.25905      .   S
    Zr71   O305      3.34923      .   S
    N303   O306      2.15478  1_545   S
    Zr26   O306      3.28202      .   S
    N303   O307      2.18475  1_545   S
    Zr20   O307      3.31789  1_556   S
    N309   O310      2.12628      .   S
    Zr29   O310      3.24265      .   S
    N309   O311      2.25558      .   S
    Zr44   O311      3.34600      .   S
    N309   O312      2.27646  1_554   S
    Zr7    O312      3.39398      .   S
    N309   O313      2.10581  1_554   S
    Zr37   O313      3.20626      .   S
    N315   O316      2.25597      .   S
    Zr58   O316      3.38651  1_655   S
    N315   O317      2.24947      .   S
    Zr91   O317      3.33185  1_545   S
    N315   O318      2.13001      .   S
    Zr88   O318      3.21138      .   S
    N315   O319      2.15856      .   S
    Zr76   O319      3.31355      .   S
    N320   O321      0.70856      .   S
    Zr70   O321      1.80529      .   S
    N320   O322      0.71164      .   S
    Zr10   O322      1.81498      .   S
    N320   O323      0.73220      .   S
    Zr85   O323      1.88011      .   S
    N324   O325      2.12920  1_554   S
    Zr7    O325      3.25976      .   S
    N324   O326      2.26251      .   S
    Zr69   O326      3.37335      .   S
    N324   O327      2.13091      .   S
    Zr39   O327      3.22063      .   S
    N324   O328      2.26118  1_554   S
    Zr82   O328      3.35590  1_565   S
    N329   O330      2.13001      .   S
    Zr92   O330      3.21138      .   S
    N329   O331      2.24947      .   S
    Zr95   O331      3.33185  1_545   S
    N329   O332      2.25597      .   S
    Zr62   O332      3.38651      .   S
    N329   O333      2.15856      .   S
    Zr80   O333      3.31355      .   S
    N335   O336      2.12628      .   S
    Zr26   O336      3.24265      .   S
    N335   O337      2.10581      .   S
    Zr40   O337      3.20626      .   S
    N335   O338      2.25558      .   S
    Zr41   O338      3.34600  1_545   S
    N335   O339      2.27646      .   S
    Zr10   O339      3.39398      .   S
    N340   O341      0.70856      .   S
    Zr77   O341      1.80529      .   S
    N340   O342      0.71164      .   S
    Zr17   O342      1.81498      .   S
    N340   O343      0.73220      .   S
    Zr92   O343      1.88011      .   S
    N344   O345      2.24291      .   S
    Zr60   O345      3.32597      .   S
    N344   O346      2.15478      .   S
    Zr23   O346      3.28202      .   S
    N344   O347      2.25905      .   S
    Zr68   O347      3.34923      .   S
    N344   O348      2.18475      .   S
    Zr15   O348      3.31789      .   S
    N350   O351      0.97762      .   S
    Zr63   O351      1.96608      .   S
    N352   O353      2.27815      .   S
    Zr21   O353      3.39285  1_455   S
    N352   O354      2.13999      .   S
    Zr57   O354      3.26153      .   S
    N352   O355      2.11698      .   S
    Zr81   O355      3.22201      .   S
    N352   O356      2.26038      .   S
    Zr42   O356      3.36107      .   S
    N357   O358      0.97762      .   S
    Zr54   O358      1.96608      .   S
    N359   O360      2.18475  1_565   S
    Zr11   O360      3.31789      .   S
    N359   O361      2.25905      .   S
    Zr80   O361      3.34923      .   S
    N359   O362      2.24291      .   S
    Zr56   O362      3.32597      .   S
    N359   O363      2.15478  1_565   S
    Zr35   O363      3.28202      .   S
    N364   O365      2.11698      .   S
    Zr95   O365      3.22201      .   S
    N364   O366      2.13999      .   S
    Zr63   O366      3.26153      .   S
    N364   O367      2.26038      .   S
    Zr48   O367      3.36107      .   S
    N364   O368      2.27815      .   S
    Zr35   O368      3.39285      .   S
    N369   O370      0.70407      .   S
    Zr60   O370      1.79899      .   S
    N369   O371      0.70490      .   S
    Zr15   O371      1.80234      .   S
    N369   O372      0.70666      .   S
    Zr45   O372      1.80734      .   S
    N377   O378      1.18188      .   S
    Zr13   O378      2.25653      .   S
    N379   O380      2.27815      .   S
    Zr34   O380      3.39285      .   S
    N379   O381      2.11698      .   S
    Zr94   O381      3.22201      .   S
    N379   O382      2.26038      .   S
    Zr2    O382      3.36107      .   S
    N379   O383      2.13999      .   S
    Zr3    O383      3.26153      .   S
    N384   O385      2.25597      .   S
    Zr54   O385      3.38651      .   S
    N384   O386      2.24947      .   S
    Zr87   O386      3.33185      .   S
    N384   O387      2.15856      .   S
    Zr72   O387      3.31355      .   S
    N384   O388      2.13001      .   S
    Zr84   O388      3.21138      .   S
    N389   O390      2.24291      .   S
    Zr54   O390      3.32597      .   S
    N389   O391      2.15478      .   S
    Zr33   O391      3.28202      .   S
    N389   O392      2.18475      .   S
    Zr9    O392      3.31789      .   S
    N389   O393      2.25905      .   S
    Zr78   O393      3.34923      .   S
    N394   O395      2.25905      .   S
    Zr77   O395      3.34923      .   S
    N394   O396      2.18475      .   S
    Zr10   O396      3.31789      .   S
    N394   O397      2.24291      .   S
    Zr55   O397      3.32597      .   S
    N394   O398      2.15478      .   S
    Zr32   O398      3.28202      .   S
    N400   O401      2.13091      .   S
    Zr45   O401      3.22063      .   S
    N400   O402      2.26251      .   S
    Zr75   O402      3.37335      .   S
    N400   O403      2.26118      .   S
    Zr88   O403      3.35590      .   S
    N400   O404      2.12920      .   S
    Zr13   O404      3.25976      .   S
    N405   O406      1.18188      .   S
    Zr11   O406      2.25653      .   S
    N409   O410      1.08535      .   S
    Zr27   O410      2.15197      .   S
    N411   O412      2.26251      .   S
    Zr76   O412      3.37335      .   S
    N411   O413      2.12920      .   S
    Zr10   O413      3.25976      .   S
    N411   O414      2.13091      .   S
    Zr46   O414      3.22063      .   S
    N411   O415      2.26118      .   S
    Zr85   O415      3.35590      .   S
    N418   O419      2.25597      .   S
    Zr55   O419      3.38651      .   S
    N418   O420      2.24947      .   S
    Zr90   O420      3.33185      .   S
    N418   O421      2.13001      .   S
    Zr85   O421      3.21138      .   S
    N418   O422      2.15856      .   S
    Zr75   O422      3.31355      .   S
    N423   O424      2.24291      .   S
    Zr63   O424      3.32597      .   S
    N423   O425      2.15478      .   S
    Zr24   O425      3.28202  1_554   S
    N423   O426      2.25905      .   S
    Zr69   O426      3.34923  1_554   S
    N423   O427      2.18475      .   S
    Zr18   O427      3.31789      .   S
    N428   O429      2.24291      .   S
    Zr64   O429      3.32597  1_556   S
    N428   O430      2.15478      .   S
    Zr27   O430      3.28202      .   S
    N428   O431      2.18475      .   S
    Zr19   O431      3.31789  1_556   S
    N428   O432      2.25905      .   S
    Zr72   O432      3.34923      .   S
    N434   O435      2.26251      .   S
    Zr71   O435      3.37335      .   S
    N434   O436      2.13091      .   S
    Zr41   O436      3.22063      .   S
    N434   O437      2.12920      .   S
    Zr9    O437      3.25976      .   S
    N434   O438      2.26118      .   S
    Zr84   O438      3.35590      .   S
    N439   O440      1.18188      .   S
    Zr18   O440      2.25653      .   S
    N442   O443      0.70345      .   S
    Zr27   O443      1.79579      .   S
    N442   O444      0.70755      .   S
    Zr42   O444      1.80776      .   S
    N442   O445      0.70685      .   S
    Zr72   O445      1.80498      .   S
    N451   O452      0.50990      .   S
    Zr84   O452      1.52970      .   S
    N451   O453      0.51332      .   S
    Zr9    O453      1.53996      .   S
    N451   O454      0.51828      .   S
    Zr54   O454      1.55484      .   S
    N455   O456      2.25597      .   S
    Zr56   O456      3.38651      .   S
    N455   O457      2.24947      .   S
    Zr81   O457      3.33185      .   S
    N455   O458      2.15856      .   S
    Zr66   O458      3.31355      .   S
    N455   O459      2.13001      .   S
    Zr86   O459      3.21138      .   S
    N460   O461      0.51774      .   S
    Zr47   O461      1.55322      .   S
    N460   O462      0.51960      .   S
    Zr17   O462      1.55879      .   S
    N460   O463      0.51835      .   S
    Zr77   O463      1.55504      .   S
    N464   O465      2.15478      .   S
    Zr25   O465      3.28202  1_554   S
    N464   O466      2.24291      .   S
    Zr62   O466      3.32597      .   S
    N464   O467      2.18475      .   S
    Zr17   O467      3.31789      .   S
    N464   O468      2.25905      .   S
    Zr70   O468      3.34923  1_554   S
    N469   O470      0.70345      .   S
    Zr1    O470      1.79579      .   S
    N469   O471      0.70755      .   S
    Zr2    O471      1.80776      .   S
    N469   O472      0.70685      .   S
    Zr4    O472      1.80498  1_455   S
    N473   O474      0.70345      .   S
    Zr33   O474      1.79579      .   S
    N473   O475      0.70755      .   S
    Zr48   O475      1.80776      .   S
    N473   O476      0.70685      .   S
    Zr78   O476      1.80498      .   S
    N477   O478      0.70345      .   S
    Zr21   O478      1.79579      .   S
    N477   O479      0.70755      .   S
    Zr36   O479      1.80776      .   S
    N477   O480      0.70685      .   S
    Zr66   O480      1.80498  1_655   S
    N482   O483      0.70345      .   S
    Zr25   O483      1.79579      .   S
    N482   O484      0.70755      .   S
    Zr40   O484      1.80776      .   S
    N482   O485      0.70685      .   S
    Zr70   O485      1.80498      .   S
    N489   O490      1.18188      .   S
    Zr9    O490      2.25653      .   S
    N493   O494      0.51155      .   S
    Zr23   O494      1.53464      .   S
    N493   O495      0.50841      .   S
    Zr83   O495      1.52524      .   S
    N493   O496      0.51764      .   S
    Zr68   O496      1.55292      .   S
    N497   O498      2.13999      .   S
    Zr61   O498      3.26153      .   S
    N497   O499      2.26038      .   S
    Zr46   O499      3.36107  1_565   S
    N497   O500      2.27815      .   S
    Zr33   O500      3.39285      .   S
    N497   O501      2.11698      .   S
    Zr93   O501      3.22201      .   S
    N502   O503      2.26251      .   S
    Zr66   O503      3.37335  1_655   S
    N502   O504      2.12920      .   S
    Zr16   O504      3.25976      .   S
    N502   O505      2.26118      .   S
    Zr91   O505      3.35590  1_545   S
    N502   O506      2.13091      .   S
    Zr36   O506      3.22063      .   S
    N507   O508      2.27815      .   S
    Zr1    O508      3.39285  1_655   S
    N507   O509      2.26038      .   S
    Zr45   O509      3.36107      .   S
    N507   O510      2.13999      .   S
    Zr60   O510      3.26153      .   S
    N507   O511      2.11698      .   S
    Zr5    O511      3.22201      .   S
    N512   O513      0.97762      .   S
    Zr55   O513      1.96608      .   S
    N514   O515      1.08535      .   S
    Zr32   O515      2.15197      .   S
    N516   O517      0.70856      .   S
    Zr75   O517      1.80529      .   S
    N516   O518      0.71164      .   S
    Zr15   O518      1.81498      .   S
    N516   O519      0.73220      .   S
    Zr90   O519      1.88011      .   S
    N521   O522      2.25558      .   S
    Zr45   O522      3.34600      .   S
    N521   O523      2.27646      .   S
    Zr14   O523      3.39398  1_655   S
    N521   O524      2.10581      .   S
    Zr44   O524      3.20626      .   S
    N521   O525      2.12628      .   S
    Zr30   O525      3.24265      .   S
    N526   O527      2.26251      .   S
    Zr73   O527      3.37335  1_455   S
    N526   O528      2.12920  1_554   S
    Zr19   O528      3.25976      .   S
    N526   O529      2.13091      .   S
    Zr43   O529      3.22063      .   S
    N526   O530      2.26118  1_554   S
    Zr94   O530      3.35590      .   S
    N531   O532      1.18188      .   S
    Zr14   O532      2.25653      .   S
    N536   O537      2.24291      .   S
    Zr51   O537      3.32597      .   S
    N536   O538      2.15478  1_455   S
    Zr28   O538      3.28202  1_554   S
    N536   O539      2.25905      .   S
    Zr73   O539      3.34923  1_554   S
    N536   O540      2.18475  1_455   S
    Zr6    O540      3.31789      .   S
    N541   O542      1.18188      .   S
    Zr20   O542      2.25653      .   S
    N543   O544      2.13091      .   S
    Zr44   O544      3.22063      .   S
    N543   O545      2.26251      .   S
    Zr74   O545      3.37335  1_655   S
    N543   O546      2.12920  1_554   S
    Zr8    O546      3.25976      .   S
    N543   O547      2.26118  1_554   S
    Zr83   O547      3.35590      .   S
    N548   O549      2.26251      .   S
    Zr72   O549      3.37335      .   S
    N548   O550      2.13091      .   S
    Zr42   O550      3.22063      .   S
    N548   O551      2.12920      .   S
    Zr14   O551      3.25976      .   S
    N548   O552      2.26118      .   S
    Zr89   O552      3.35590      .   S
    N553   O554      2.25558      .   S
    Zr47   O554      3.34600      .   S
    N553   O555      2.12628      .   S
    Zr32   O555      3.24265      .   S
    N553   O556      2.10581      .   S
    Zr46   O556      3.20626      .   S
    N553   O557      2.27646      .   S
    Zr16   O557      3.39398      .   S
    N558   O559      0.95589      .   S
    Zr68   O559      1.95326      .   S
    N560   O561      0.70812      .   S
    Zr26   O561      1.80622      .   S
    N560   O562      0.72604      .   S
    Zr86   O562      1.86309      .   S
    N560   O563      0.70513      .   S
    Zr56   O563      1.79689      .   S
    N566   O567      2.25558      .   S
    Zr39   O567      3.34600      .   S
    N566   O568      2.12628      .   S
    Zr24   O568      3.24265      .   S
    N566   O569      2.27646  1_554   S
    Zr8    O569      3.39398      .   S
    N566   O570      2.10581  1_554   S
    Zr38   O570      3.20626      .   S
    N572   O573      0.95589      .   S
    Zr75   O573      1.95326      .   S
    N576   O577      0.95589      .   S
    Zr66   O577      1.95326      .   S
    N581   O582      0.70345      .   S
    Zr24   O582      1.79579      .   S
    N581   O583      0.70755      .   S
    Zr39   O583      1.80776      .   S
    N581   O584      0.70685      .   S
    Zr69   O584      1.80498      .   S
    N585   O586      0.70345      .   S
    Zr28   O586      1.79579      .   S
    N585   O587      0.70755      .   S
    Zr43   O587      1.80776      .   S
    N585   O588      0.70685      .   S
    Zr73   O588      1.80498  1_455   S
    N589   O590      2.26038      .   S
    Zr38   O590      3.36107      .   S
    N589   O591      2.13999      .   S
    Zr53   O591      3.26153      .   S
    N589   O592      2.27815  1_556   S
    Zr25   O592      3.39285      .   S
    N589   O593      2.11698  1_556   S
    Zr85   O593      3.22201      .   S
    N594   O595      0.95589      .   S
    Zr80   O595      1.95326      .   S
    N596   O597      0.97762      .   S
    Zr59   O597      1.96608      .   S
    N598   O599      2.13001  1_554   S
    Zr83   O599      3.21138      .   S
    N598   O600      2.24947      .   S
    Zr88   O600      3.33185      .   S
    N598   O601      2.15856      .   S
    Zr73   O601      3.31355      .   S
    N598   O602      2.25597  1_554   S
    Zr53   O602      3.38651      .   S
    N603   O604      0.95589      .   S
    Zr72   O604      1.95326      .   S
    N605   O606      0.97762      .   S
    Zr60   O606      1.96608      .   S
    N607   O608      0.97762      .   S
    Zr52   O608      1.96608      .   S
    N609   O610      0.70345      .   S
    Zr29   O610      1.79579      .   S
    N609   O611      0.70755      .   S
    Zr44   O611      1.80776      .   S
    N609   O612      0.70685      .   S
    Zr74   O612      1.80498  1_655   S
    N613   O614      0.51155      .   S
    Zr1    O614      1.53464  1_655   S
    N613   O615      0.51764      .   S
    Zr4    O615      1.55292      .   S
    N613   O616      0.50841      .   S
    Zr5    O616      1.52524      .   S
    N617   O618      1.18188      .   S
    Zr7    O618      2.25653      .   S
    N619   O620      0.70812      .   S
    Zr27   O620      1.80622      .   S
    N619   O621      0.72604      .   S
    Zr87   O621      1.86309      .   S
    N619   O622      0.70513      .   S
    Zr57   O622      1.79689      .   S
    N623   O624      0.70345      .   S
    Zr30   O624      1.79579      .   S
    N623   O625      0.70755      .   S
    Zr45   O625      1.80776      .   S
    N623   O626      0.70685      .   S
    Zr75   O626      1.80498      .   S
    N627   O628      0.70513      .   S
    Zr65   O628      1.79689      .   S
    N627   O629      0.70812      .   S
    Zr35   O629      1.80622      .   S
    N627   O630      0.72604      .   S
    Zr95   O630      1.86309      .   S
    N631   O632      0.95589      .   S
    Zr67   O632      1.95326      .   S
    N633   O634      0.51774      .   S
    Zr45   O634      1.55322      .   S
    N633   O635      0.51960      .   S
    Zr15   O635      1.55879      .   S
    N633   O636      0.51835      .   S
    Zr75   O636      1.55504      .   S
    N637   O638      1.18188      .   S
    Zr19   O638      2.25653      .   S
    N639   O640      2.18475  1_455   S
    Zr14   O640      3.31789      .   S
    N639   O641      2.24291      .   S
    Zr59   O641      3.32597      .   S
    N639   O642      2.15478  1_455   S
    Zr1    O642      3.28202      .   S
    N639   O643      2.25905      .   S
    Zr4    O643      3.34923      .   S
    N644   O645      0.70345      .   S
    Zr31   O645      1.79579  1_545   S
    N644   O646      0.70755      .   S
    Zr46   O646      1.80776      .   S
    N644   O647      0.70685      .   S
    Zr76   O647      1.80498      .   S
    N648   O649      2.15478  1_655   S
    Zr29   O649      3.28202  1_554   S
    N648   O650      2.18475  1_655   S
    Zr0    O650      3.31789      .   S
    N648   O651      2.24291      .   S
    Zr3    O651      3.32597      .   S
    N648   O652      2.25905      .   S
    Zr74   O652      3.34923  1_554   S
    N653   O654      0.95589      .   S
    Zr4    O654      1.95326      .   S
    N655   O656      0.97762      .   S
    Zr3    O656      1.96608      .   S
    N658   O659      0.70345      .   S
    Zr32   O659      1.79579      .   S
    N658   O660      0.70755      .   S
    Zr47   O660      1.80776      .   S
    N658   O661      0.70685      .   S
    Zr77   O661      1.80498      .   S
    N662   O663      1.18188      .   S
    Zr10   O663      2.25653      .   S
    N664   O665      2.15856      .   S
    Zr68   O665      3.31355      .   S
    N664   O666      2.24947      .   S
    Zr83   O666      3.33185      .   S
    N664   O667      2.13001      .   S
    Zr5    O667      3.21138      .   S
    N664   O668      2.25597      .   S
    Zr3    O668      3.38651  1_655   S
    N669   O670      0.51782      .   S
    Zr40   O670      1.55345      .   S
    N669   O671      0.51993      .   S
    Zr25   O671      1.55978      .   S
    N669   O672      0.51690      .   S
    Zr55   O672      1.55071      .   S
    N673   O674      1.18188      .   S
    Zr17   O674      2.25653      .   S
    N676   O677      2.27815  1_556   S
    Zr24   O677      3.39285      .   S
    N676   O678      2.26038      .   S
    Zr49   O678      3.36107      .   S
    N676   O679      2.11698  1_556   S
    Zr84   O679      3.22201      .   S
    N676   O680      2.13999      .   S
    Zr64   O680      3.26153      .   S
    N681   O682      0.50990      .   S
    Zr88   O682      1.52970      .   S
    N681   O683      0.51332      .   S
    Zr13   O683      1.53996      .   S
    N681   O684      0.51828      .   S
    Zr58   O684      1.55484  1_655   S
    N685   O686      1.08535      .   S
    Zr1    O686      2.15197      .   S
    N687   O688      2.13999      .   S
    Zr52   O688      3.26153      .   S
    N687   O689      2.26038      .   S
    Zr37   O689      3.36107  1_545   S
    N687   O690      2.27815  1_556   S
    Zr28   O690      3.39285  1_655   S
    N687   O691      2.11698  1_556   S
    Zr88   O691      3.22201      .   S
    N692   O693      0.70513      .   S
    Zr61   O693      1.79689      .   S
    N692   O694      0.70812      .   S
    Zr31   O694      1.80622      .   S
    N692   O695      0.72604      .   S
    Zr91   O695      1.86309      .   S
    N696   O697      0.51828      .   S
    Zr3    O697      1.55484  1_655   S
    N696   O698      0.51332      .   S
    Zr0    O698      1.53996      .   S
    N696   O699      0.50990      .   S
    Zr5    O699      1.52970      .   S
    N701   O702      0.95589      .   S
    Zr70   O702      1.95326      .   S
    N704   O705      1.08535      .   S
    Zr29   O705      2.15197      .   S
    N709   O710      0.95589      .   S
    Zr69   O710      1.95326      .   S
    N711   O712      0.97762      .   S
    Zr58   O712      1.96608      .   S
    N714   O715      1.08535      .   S
    Zr22   O715      2.15197      .   S
    N716   O717      1.08535      .   S
    Zr24   O717      2.15197      .   S
    N718   O719      2.11698      .   S
    Zr82   O719      3.22201      .   S
    N718   O720      2.27815      .   S
    Zr22   O720      3.39285      .   S
    N718   O721      2.13999      .   S
    Zr62   O721      3.26153      .   S
    N718   O722      2.26038      .   S
    Zr47   O722      3.36107      .   S
    N723   O724      0.70407      .   S
    Zr54   O724      1.79899      .   S
    N723   O725      0.70490      .   S
    Zr9    O725      1.80234      .   S
    N723   O726      0.70666      .   S
    Zr39   O726      1.80734      .   S
    N727   O728      0.97762      .   S
    Zr51   O728      1.96608      .   S
    N729   O730      1.18188      .   S
    Zr15   O730      2.25653      .   S
    N732   O733      0.70856      .   S
    Zr79   O733      1.80529      .   S
    N732   O734      0.71164      .   S
    Zr19   O734      1.81498      .   S
    N732   O735      0.73220      .   S
    Zr94   O735      1.88011      .   S
    N737   O738      0.97762      .   S
    Zr62   O738      1.96608      .   S
    N742   O743      0.70345      .   S
    Zr34   O743      1.79579      .   S
    N742   O744      0.70755      .   S
    Zr49   O744      1.80776      .   S
    N742   O745      0.70685      .   S
    Zr79   O745      1.80498      .   S
    N746   O747      2.12628      .   S
    Zr27   O747      3.24265      .   S
    N746   O748      2.27646      .   S
    Zr13   O748      3.39398  1_455   S
    N746   O749      2.25558      .   S
    Zr42   O749      3.34600      .   S
    N746   O750      2.10581      .   S
    Zr43   O750      3.20626      .   S
    N751   O752      0.70345      .   S
    Zr35   O752      1.79579  1_545   S
    N751   O753      0.70755      .   S
    Zr50   O753      1.80776      .   S
    N751   O754      0.70685      .   S
    Zr80   O754      1.80498      .   S
    N756   O757      0.51155      .   S
    Zr21   O757      1.53464  1_455   S
    N756   O758      0.50841      .   S
    Zr81   O758      1.52524      .   S
    N756   O759      0.51764      .   S
    Zr66   O759      1.55292      .   S
    N760   O761      2.25597      .   S
    Zr60   O761      3.38651      .   S
    N760   O762      2.13001      .   S
    Zr90   O762      3.21138      .   S
    N760   O763      2.15856      .   S
    Zr78   O763      3.31355      .   S
    N760   O764      2.24947      .   S
    Zr93   O764      3.33185      .   S
    N765   O766      0.70856      .   S
    Zr71   O766      1.80529      .   S
    N765   O767      0.71164      .   S
    Zr11   O767      1.81498      .   S
    N765   O768      0.73220      .   S
    Zr86   O768      1.88011  1_565   S
    N769   O770      0.70345      .   S
    Zr22   O770      1.79579  1_565   S
    N769   O771      0.70755      .   S
    Zr37   O771      1.80776      .   S
    N769   O772      0.70685      .   S
    Zr67   O772      1.80498      .   S
    N773   O774      0.70407      .   S
    Zr58   O774      1.79899      .   S
    N773   O775      0.70490      .   S
    Zr13   O775      1.80234  1_455   S
    N773   O776      0.70666      .   S
    Zr43   O776      1.80734      .   S
    N777   O778      0.95589      .   S
    Zr77   O778      1.95326      .   S
    N779   O780      0.70345      .   S
    Zr23   O780      1.79579      .   S
    N779   O781      0.70755      .   S
    Zr38   O781      1.80776      .   S
    N779   O782      0.70685      .   S
    Zr68   O782      1.80498      .   S
    N783   O784      2.25558      .   S
    Zr43   O784      3.34600      .   S
    N783   O785      2.12628      .   S
    Zr28   O785      3.24265      .   S
    N783   O786      2.10581  1_554   S
    Zr50   O786      3.20626      .   S
    N783   O787      2.27646  1_554   S
    Zr20   O787      3.39398      .   S
    N790   O791      2.27646      .   S
    Zr6    O791      3.39398  1_655   S
    N790   O792      2.12628      .   S
    Zr22   O792      3.24265      .   S
    N790   O793      2.25558      .   S
    Zr37   O793      3.34600  1_545   S
    N790   O794      2.10581      .   S
    Zr36   O794      3.20626      .   S
    N795   O796      0.50990      .   S
    Zr82   O796      1.52970      .   S
    N795   O797      0.51332  1_565   S
    Zr7    O797      1.53996      .   S
    N795   O798      0.51828      .   S
    Zr52   O798      1.55484      .   S
    N799   O800      0.70407      .   S
    Zr3    O800      1.79899      .   S
    N799   O801      0.70490      .   S
    Zr0    O801      1.80234  1_455   S
    N799   O802      0.70666      .   S
    Zr2    O802      1.80734      .   S
    N805   O806      0.95589      .   S
    Zr78   O806      1.95326      .   S
    N809   O810      0.51993      .   S
    Zr30   O810      1.55978      .   S
    N809   O811      0.51690      .   S
    Zr60   O811      1.55071      .   S
    N809   O812      0.51782      .   S
    Zr45   O812      1.55345      .   S
    N813   O814      0.97762      .   S
    Zr65   O814      1.96608      .   S
    N815   O816      0.70407      .   S
    Zr57   O816      1.79899      .   S
    N815   O817      0.70490      .   S
    Zr12   O817      1.80234      .   S
    N815   O818      0.70666      .   S
    Zr42   O818      1.80734      .   S
    N819   O820      0.97762      .   S
    Zr61   O820      1.96608      .   S
    N822   O823      0.95589      .   S
    Zr71   O823      1.95326      .   S
    N825   O826      1.08535      .   S
    Zr33   O826      2.15197      .   S
    N828   O829      0.51782      .   S
    Zr49   O829      1.55345      .   S
    N828   O830      0.51690      .   S
    Zr64   O830      1.55071      .   S
    N828   O831      0.51993      .   S
    Zr34   O831      1.55978      .   S
    N832   O833      0.97762      .   S
    Zr64   O833      1.96608      .   S
    N834   O835      2.13091      .   S
    Zr37   O835      3.22063      .   S
    N834   O836      2.26251      .   S
    Zr67   O836      3.37335      .   S
    N834   O837      2.26118      .   S
    Zr5    O837      3.35590      .   S
    N834   O838      2.12920      .   S
    Zr0    O838      3.25976      .   S
    N840   O841      0.70513      .   S
    Zr64   O841      1.79689      .   S
    N840   O842      0.70812      .   S
    Zr34   O842      1.80622      .   S
    N840   O843      0.72604      .   S
    Zr94   O843      1.86309      .   S
    N844   O845      0.70812      .   S
    Zr1    O845      1.80622  1_655   S
    N844   O846      0.72604      .   S
    Zr5    O846      1.86309      .   S
    N844   O847      0.70513      .   S
    Zr3    O847      1.79689  1_655   S
    N848   O849      1.08535      .   S
    Zr34   O849      2.15197      .   S
    N851   O852      0.97762      .   S
    Zr53   O852      1.96608      .   S
    N855   O856      2.13001      .   S
    Zr91   O856      3.21138      .   S
    N855   O857      2.25597      .   S
    Zr61   O857      3.38651      .   S
    N855   O858      2.24947      .   S
    Zr5    O858      3.33185      .   S
    N855   O859      2.15856      .   S
    Zr4    O859      3.31355      .   S
    N860   O861      0.70856      .   S
    Zr72   O861      1.80529      .   S
    N860   O862      0.71164      .   S
    Zr12   O862      1.81498      .   S
    N860   O863      0.73220      .   S
    Zr87   O863      1.88011      .   S
    N864   O865      2.12628      .   S
    Zr21   O865      3.24265      .   S
    N864   O866      2.10581      .   S
    Zr45   O866      3.20626      .   S
    N864   O867      2.27646      .   S
    Zr15   O867      3.39398      .   S
    N864   O868      2.25558      .   S
    Zr36   O868      3.34600      .   S
    N871   O872      0.51835      .   S
    Zr70   O872      1.55504      .   S
    N871   O873      0.51774      .   S
    Zr40   O873      1.55322      .   S
    N871   O874      0.51960      .   S
    Zr10   O874      1.55879      .   S
    N876   O877      0.70345      .   S
    Zr26   O877      1.79579  1_565   S
    N876   O878      0.70755      .   S
    Zr41   O878      1.80776      .   S
    N876   O879      0.70685      .   S
    Zr71   O879      1.80498      .   S
    N880   O881      2.26038      .   S
    Zr41   O881      3.36107  1_545   S
    N880   O882      2.13999      .   S
    Zr56   O882      3.26153      .   S
    N880   O883      2.11698      .   S
    Zr92   O883      3.22201      .   S
    N880   O884      2.27815      .   S
    Zr32   O884      3.39285      .   S
    N885   O886      1.08535      .   S
    Zr25   O886      2.15197      .   S
    N887   O888      0.51155      .   S
    Zr24   O888      1.53464      .   S
    N887   O889      0.50841      .   S
    Zr84   O889      1.52524      .   S
    N887   O890      0.51764      .   S
    Zr69   O890      1.55292      .   S
    N891   O892      0.51835      .   S
    Zr80   O892      1.55504      .   S
    N891   O893      0.51774      .   S
    Zr50   O893      1.55322      .   S
    N891   O894      0.51960      .   S
    Zr20   O894      1.55879      .   S
    N895   O896      1.18188      .   S
    Zr8    O896      2.25653      .   S
    N897   O898      0.51774      .   S
    Zr36   O898      1.55322      .   S
    N897   O899      0.51960      .   S
    Zr6    O899      1.55879  1_655   S
    N897   O900      0.51835      .   S
    Zr66   O900      1.55504  1_655   S
    N901   O902      0.70407      .   S
    Zr64   O902      1.79899      .   S
    N901   O903      0.70490      .   S
    Zr19   O903      1.80234      .   S
    N901   O904      0.70666      .   S
    Zr49   O904      1.80734      .   S
    N905   O906      2.24291      .   S
    Zr61   O906      3.32597      .   S
    N905   O907      2.18475  1_545   S
    Zr16   O907      3.31789      .   S
    N905   O908      2.25905      .   S
    Zr67   O908      3.34923      .   S
    N905   O909      2.15478  1_545   S
    Zr22   O909      3.28202      .   S
    N910   O911      0.51993      .   S
    Zr32   O911      1.55978      .   S
    N910   O912      0.51782      .   S
    Zr47   O912      1.55345      .   S
    N910   O913      0.51690      .   S
    Zr62   O913      1.55071      .   S
    N915   O916      0.70513      .   S
    Zr52   O916      1.79689      .   S
    N915   O917      0.70812      .   S
    Zr22   O917      1.80622      .   S
    N915   O918      0.72604      .   S
    Zr82   O918      1.86309      .   S
    N920   O921      0.70856      .   S
    Zr69   O921      1.80529      .   S
    N920   O922      0.71164      .   S
    Zr9    O922      1.81498      .   S
    N920   O923      0.73220      .   S
    Zr84   O923      1.88011      .   S
    N926   O927      0.50990      .   S
    Zr91   O927      1.52970      .   S
    N926   O928      0.51332  1_545   S
    Zr16   O928      1.53996      .   S
    N926   O929      0.51828      .   S
    Zr61   O929      1.55484      .   S
    N930   O931      0.70513      .   S
    Zr58   O931      1.79689  1_655   S
    N930   O932      0.70812      .   S
    Zr28   O932      1.80622  1_655   S
    N930   O933      0.72604      .   S
    Zr88   O933      1.86309      .   S
    N934   O935      0.51960      .   S
    Zr0    O935      1.55879  1_455   S
    N934   O936      0.51835      .   S
    Zr4    O936      1.55504  1_455   S
    N934   O937      0.51774      .   S
    Zr2    O937      1.55322      .   S
    N938   O939      1.08535      .   S
    Zr30   O939      2.15197      .   S
    N940   O941      0.70513      .   S
    Zr54   O941      1.79689      .   S
    N940   O942      0.70812      .   S
    Zr24   O942      1.80622      .   S
    N940   O943      0.72604      .   S
    Zr84   O943      1.86309      .   S
    N945   O946      0.70856      .   S
    Zr68   O946      1.80529      .   S
    N945   O947      0.71164      .   S
    Zr8    O947      1.81498      .   S
    N945   O948      0.73220      .   S
    Zr83   O948      1.88011      .   S
    N949   O950      0.51155      .   S
    Zr22   O950      1.53464      .   S
    N949   O951      0.50841      .   S
    Zr82   O951      1.52524      .   S
    N949   O952      0.51764  1_565   S
    Zr67   O952      1.55292      .   S
    N953   O954      0.51774      .   S
    Zr41   O954      1.55322      .   S
    N953   O955      0.51960      .   S
    Zr11   O955      1.55879      .   S
    N953   O956      0.51835      .   S
    Zr71   O956      1.55504      .   S
    N958   O959      0.97762      .   S
    Zr56   O959      1.96608      .   S
    N960   O961      0.51960      .   S
    Zr14   O961      1.55879  1_655   S
    N960   O962      0.51774      .   S
    Zr44   O962      1.55322      .   S
    N960   O963      0.51835      .   S
    Zr74   O963      1.55504  1_655   S
    N964   O965      0.50841      .   S
    Zr90   O965      1.52524      .   S
    N964   O966      0.51155      .   S
    Zr30   O966      1.53464      .   S
    N964   O967      0.51764      .   S
    Zr75   O967      1.55292      .   S
    N968   O969      1.08535      .   S
    Zr21   O969      2.15197      .   S
    N970   O971      0.70856      .   S
    Zr66   O971      1.80529      .   S
    N970   O972      0.71164      .   S
    Zr6    O972      1.81498      .   S
    N970   O973      0.73220      .   S
    Zr81   O973      1.88011      .   S
    N974   O975      0.70407  1_565   S
    Zr65   O975      1.79899      .   S
    N974   O976      0.70490      .   S
    Zr20   O976      1.80234      .   S
    N974   O977      0.70666      .   S
    Zr50   O977      1.80734      .   S
    N979   O980      0.70407      .   S
    Zr55   O980      1.79899      .   S
    N979   O981      0.70490      .   S
    Zr10   O981      1.80234      .   S
    N979   O982      0.70666      .   S
    Zr40   O982      1.80734      .   S
    N983   O984      0.70407      .   S
    Zr63   O984      1.79899      .   S
    N983   O985      0.70490      .   S
    Zr18   O985      1.80234      .   S
    N983   O986      0.70666      .   S
    Zr48   O986      1.80734      .   S
    N987   O988      0.70856      .   S
    Zr76   O988      1.80529      .   S
    N987   O989      0.71164      .   S
    Zr16   O989      1.81498      .   S
    N987   O990      0.73220      .   S
    Zr91   O990      1.88011  1_545   S
    N995   O996      0.70812      .   S
    Zr32   O996      1.80622      .   S
    N995   O997      0.72604      .   S
    Zr92   O997      1.86309      .   S
    N995   O998      0.70513      .   S
    Zr62   O998      1.79689      .   S
    N999   O1000     0.97762      .   S
    Zr57   O1000     1.96608      .   S
    N1001  O1002     0.95589      .   S
    Zr76   O1002     1.95326      .   S
    N1003  O1004     0.70856      .   S
    Zr73   O1004     1.80529      .   S
    N1003  O1005     0.71164      .   S
    Zr13   O1005     1.81498      .   S
    N1003  O1006     0.73220      .   S
    Zr88   O1006     1.88011      .   S
    N1010  O1011     0.70856      .   S
    Zr74   O1011     1.80529      .   S
    N1010  O1012     0.71164      .   S
    Zr14   O1012     1.81498      .   S
    N1010  O1013     0.73220      .   S
    Zr89   O1013     1.88011      .   S
    N1014  O1015     0.95589      .   S
    Zr74   O1015     1.95326      .   S
    N1017  O1018     1.08535      .   S
    Zr31   O1018     2.15197      .   S
    N1019  O1020     1.08535      .   S
    Zr23   O1020     2.15197      .   S
    N1023  O1024     0.71164      .   S
    Zr0    O1024     1.81498      .   S
    N1023  O1025     0.73220      .   S
    Zr5    O1025     1.88011      .   S
    N1023  O1026     0.70856      .   S
    Zr4    O1026     1.80529      .   S
    N1027  O1028     0.51155      .   S
    Zr32   O1028     1.53464      .   S
    N1027  O1029     0.50841      .   S
    Zr92   O1029     1.52524      .   S
    N1027  O1030     0.51764      .   S
    Zr77   O1030     1.55292      .   S
    N1033  O1034     0.95589      .   S
    Zr79   O1034     1.95326      .   S
    N1035  O1036     0.51993      .   S
    Zr33   O1036     1.55978      .   S
    N1035  O1037     0.51782      .   S
    Zr48   O1037     1.55345      .   S
    N1035  O1038     0.51690      .   S
    Zr63   O1038     1.55071      .   S
    N1041  O1042     0.51993      .   S
    Zr21   O1042     1.55978      .   S
    N1041  O1043     0.51782      .   S
    Zr36   O1043     1.55345      .   S
    N1041  O1044     0.51690      .   S
    Zr51   O1044     1.55071      .   S
    N1045  O1046     0.51332      .   S
    Zr6    O1046     1.53996      .   S
    N1045  O1047     0.50990      .   S
    Zr81   O1047     1.52970      .   S
    N1045  O1048     0.51828      .   S
    Zr51   O1048     1.55484  1_455   S
    N1049  O1050     0.70856      .   S
    Zr67   O1050     1.80529      .   S
    N1049  O1051     0.71164      .   S
    Zr7    O1051     1.81498      .   S
    N1049  O1052     0.73220      .   S
    Zr82   O1052     1.88011  1_565   S
    N1054  O1055     0.51155      .   S
    Zr29   O1055     1.53464  1_455   S
    N1054  O1056     0.50841      .   S
    Zr89   O1056     1.52524      .   S
    N1054  O1057     0.51764      .   S
    Zr74   O1057     1.55292      .   S
    N1058  O1059     1.08535      .   S
    Zr28   O1059     2.15197      .   S
    N1060  O1061     0.51155      .   S
    Zr28   O1061     1.53464  1_655   S
    N1060  O1062     0.50841      .   S
    Zr88   O1062     1.52524      .   S
    N1060  O1063     0.51764      .   S
    Zr73   O1063     1.55292      .   S
    N1064  O1065     0.51155      .   S
    Zr34   O1065     1.53464      .   S
    N1064  O1066     0.50841      .   S
    Zr94   O1066     1.52524      .   S
    N1064  O1067     0.51764      .   S
    Zr79   O1067     1.55292      .   S
    N1068  O1069     0.51782      .   S
    Zr42   O1069     1.55345      .   S
    N1068  O1070     0.51993      .   S
    Zr27   O1070     1.55978      .   S
    N1068  O1071     0.51690      .   S
    Zr57   O1071     1.55071      .   S
    N1074  O1075     0.70407  1_565   S
    Zr61   O1075     1.79899      .   S
    N1074  O1076     0.70490      .   S
    Zr16   O1076     1.80234      .   S
    N1074  O1077     0.70666      .   S
    Zr46   O1077     1.80734      .   S
    N1079  O1080     0.51332      .   S
    Zr10   O1080     1.53996      .   S
    N1079  O1081     0.50990      .   S
    Zr85   O1081     1.52970      .   S
    N1079  O1082     0.51828      .   S
    Zr55   O1082     1.55484      .   S
    N1084  O1085     0.70407      .   S
    Zr62   O1085     1.79899      .   S
    N1084  O1086     0.70490      .   S
    Zr17   O1086     1.80234      .   S
    N1084  O1087     0.70666      .   S
    Zr47   O1087     1.80734      .   S
    N1089  O1090     0.70856      .   S
    Zr78   O1090     1.80529      .   S
    N1089  O1091     0.71164      .   S
    Zr18   O1091     1.81498      .   S
    N1089  O1092     0.73220      .   S
    Zr93   O1092     1.88011      .   S
    N1095  O1096     0.70856      .   S
    Zr80   O1096     1.80529      .   S
    N1095  O1097     0.71164      .   S
    Zr20   O1097     1.81498      .   S
    N1095  O1098     0.73220      .   S
    Zr95   O1098     1.88011  1_545   S
    N1102  O1103     0.70407      .   S
    Zr53   O1103     1.79899      .   S
    N1102  O1104     0.70490      .   S
    Zr8    O1104     1.80234      .   S
    N1102  O1105     0.70666      .   S
    Zr38   O1105     1.80734      .   S
    N1106  O1107     0.70407  1_545   S
    Zr52   O1107     1.79899      .   S
    N1106  O1108     0.70490      .   S
    Zr7    O1108     1.80234      .   S
    N1106  O1109     0.70666      .   S
    Zr37   O1109     1.80734      .   S
    N1117  O1118     0.70407      .   S
    Zr59   O1118     1.79899      .   S
    N1117  O1119     0.70490      .   S
    Zr14   O1119     1.80234  1_655   S
    N1117  O1120     0.70666      .   S
    Zr44   O1120     1.80734      .   S
    N1121  O1122     0.51332      .   S
    Zr15   O1122     1.53996      .   S
    N1121  O1123     0.50990      .   S
    Zr90   O1123     1.52970      .   S
    N1121  O1124     0.51828      .   S
    Zr60   O1124     1.55484      .   S
    N1125  O1126     0.50990      .   S
    Zr83   O1126     1.52970      .   S
    N1125  O1127     0.51332      .   S
    Zr8    O1127     1.53996      .   S
    N1125  O1128     0.51828      .   S
    Zr53   O1128     1.55484      .   S
    N1129  O1130     0.51774      .   S
    Zr43   O1130     1.55322      .   S
    N1129  O1131     0.51960      .   S
    Zr13   O1131     1.55879  1_455   S
    N1129  O1132     0.51835      .   S
    Zr73   O1132     1.55504  1_455   S
    N1133  O1134     0.51835      .   S
    Zr68   O1134     1.55504      .   S
    N1133  O1135     0.51774      .   S
    Zr38   O1135     1.55322      .   S
    N1133  O1136     0.51960      .   S
    Zr8    O1136     1.55879      .   S
    N1141  O1142     0.51782      .   S
    Zr44   O1142     1.55345      .   S
    N1141  O1143     0.51690      .   S
    Zr59   O1143     1.55071      .   S
    N1141  O1144     0.51993      .   S
    Zr29   O1144     1.55978      .   S
    N1146  O1147     0.51782      .   S
    Zr50   O1147     1.55345  1_565   S
    N1146  O1148     0.51690      .   S
    Zr65   O1148     1.55071      .   S
    N1146  O1149     0.51993      .   S
    Zr35   O1149     1.55978      .   S
    N1152  O1153     0.50990      .   S
    Zr89   O1153     1.52970      .   S
    N1152  O1154     0.51332      .   S
    Zr14   O1154     1.53996      .   S
    N1152  O1155     0.51828      .   S
    Zr59   O1155     1.55484  1_455   S
    N1156  O1157     1.08535      .   S
    Zr26   O1157     2.15197      .   S
    N1159  O1160     0.50841      .   S
    Zr87   O1160     1.52524      .   S
    N1159  O1161     0.51155      .   S
    Zr27   O1161     1.53464      .   S
    N1159  O1162     0.51764      .   S
    Zr72   O1162     1.55292      .   S
    N1163  O1164     0.50841      .   S
    Zr91   O1164     1.52524      .   S
    N1163  O1165     0.51155      .   S
    Zr31   O1165     1.53464      .   S
    N1163  O1166     0.51764  1_545   S
    Zr76   O1166     1.55292      .   S
    N1168  O1169     0.51835      .   S
    Zr79   O1169     1.55504      .   S
    N1168  O1170     0.51774      .   S
    Zr49   O1170     1.55322      .   S
    N1168  O1171     0.51960      .   S
    Zr19   O1171     1.55879      .   S
    N1173  O1174     0.51332      .   S
    Zr12   O1174     1.53996      .   S
    N1173  O1175     0.50990      .   S
    Zr87   O1175     1.52970      .   S
    N1173  O1176     0.51828      .   S
    Zr57   O1176     1.55484      .   S
    N1177  O1178     0.51155      .   S
    Zr35   O1178     1.53464      .   S
    N1177  O1179     0.50841      .   S
    Zr95   O1179     1.52524      .   S
    N1177  O1180     0.51764  1_545   S
    Zr80   O1180     1.55292      .   S
    N1181  O1182     0.70407      .   S
    Zr51   O1182     1.79899      .   S
    N1181  O1183     0.70490      .   S
    Zr6    O1183     1.80234  1_655   S
    N1181  O1184     0.70666      .   S
    Zr36   O1184     1.80734      .   S
    N1186  O1187     0.51960      .   S
    Zr18   O1187     1.55879      .   S
    N1186  O1188     0.51835      .   S
    Zr78   O1188     1.55504      .   S
    N1186  O1189     0.51774      .   S
    Zr48   O1189     1.55322      .   S
    N1190  O1191     0.51155      .   S
    Zr33   O1191     1.53464      .   S
    N1190  O1192     0.50841      .   S
    Zr93   O1192     1.52524      .   S
    N1190  O1193     0.51764      .   S
    Zr78   O1193     1.55292      .   S
    N1194  O1195     0.51332      .   S
    Zr17   O1195     1.53996      .   S
    N1194  O1196     0.50990      .   S
    Zr92   O1196     1.52970      .   S
    N1194  O1197     0.51828      .   S
    Zr62   O1197     1.55484      .   S
    N1198  O1199     0.50841      .   S
    Zr86   O1199     1.52524      .   S
    N1198  O1200     0.51155      .   S
    Zr26   O1200     1.53464      .   S
    N1198  O1201     0.51764  1_565   S
    Zr71   O1201     1.55292      .   S
    N1203  O1204     0.50841      .   S
    Zr85   O1204     1.52524      .   S
    N1203  O1205     0.51155      .   S
    Zr25   O1205     1.53464      .   S
    N1203  O1206     0.51764      .   S
    Zr70   O1206     1.55292      .   S
    N1207  O1208     0.70490      .   S
    Zr11   O1208     1.80234      .   S
    N1207  O1209     0.70666      .   S
    Zr41   O1209     1.80734      .   S
    N1207  O1210     0.70407  1_545   S
    Zr56   O1210     1.79899      .   S
    N1212  O1213     0.51835      .   S
    Zr72   O1213     1.55504      .   S
    N1212  O1214     0.51960      .   S
    Zr12   O1214     1.55879      .   S
    N1212  O1215     0.51774      .   S
    Zr42   O1215     1.55322      .   S
    N1219  O1220     0.51782      .   S
    Zr39   O1220     1.55345      .   S
    N1219  O1221     0.51993      .   S
    Zr24   O1221     1.55978      .   S
    N1219  O1222     0.51690      .   S
    Zr54   O1222     1.55071      .   S
    N1224  O1225     0.51332  1_565   S
    Zr11   O1225     1.53996      .   S
    N1224  O1226     0.50990      .   S
    Zr86   O1226     1.52970      .   S
    N1224  O1227     0.51828      .   S
    Zr56   O1227     1.55484      .   S
    N1228  O1229     0.51782      .   S
    Zr37   O1229     1.55345  1_545   S
    N1228  O1230     0.51690      .   S
    Zr52   O1230     1.55071      .   S
    N1228  O1231     0.51993      .   S
    Zr22   O1231     1.55978      .   S
    N1232  O1233     0.51993      .   S
    Zr28   O1233     1.55978      .   S
    N1232  O1234     0.51782      .   S
    Zr43   O1234     1.55345      .   S
    N1232  O1235     0.51690      .   S
    Zr58   O1235     1.55071      .   S
    N1239  O1240     0.50990      .   S
    Zr95   O1240     1.52970      .   S
    N1239  O1241     0.51332  1_545   S
    Zr20   O1241     1.53996      .   S
    N1239  O1242     0.51828      .   S
    Zr65   O1242     1.55484      .   S
    N1243  O1244     0.50990      .   S
    Zr94   O1244     1.52970      .   S
    N1243  O1245     0.51332      .   S
    Zr19   O1245     1.53996      .   S
    N1243  O1246     0.51828      .   S
    Zr64   O1246     1.55484      .   S
    N1249  O1250     0.51782      .   S
    Zr38   O1250     1.55345      .   S
    N1249  O1251     0.51690      .   S
    Zr53   O1251     1.55071      .   S
    N1249  O1252     0.51993      .   S
    Zr23   O1252     1.55978      .   S
    N1253  O1254     0.51835      .   S
    Zr67   O1254     1.55504      .   S
    N1253  O1255     0.51774      .   S
    Zr37   O1255     1.55322      .   S
    N1253  O1256     0.51960      .   S
    Zr7    O1256     1.55879      .   S
    N1258  O1259     0.51332      .   S
    Zr18   O1259     1.53996      .   S
    N1258  O1260     0.50990      .   S
    Zr93   O1260     1.52970      .   S
    N1258  O1261     0.51828      .   S
    Zr63   O1261     1.55484      .   S
    N1262  O1263     0.51993      .   S
    Zr31   O1263     1.55978      .   S
    N1262  O1264     0.51690      .   S
    Zr61   O1264     1.55071      .   S
    N1262  O1265     0.51782      .   S
    Zr46   O1265     1.55345  1_565   S
    N1266  O1267     0.51960      .   S
    Zr16   O1267     1.55879      .   S
    N1266  O1268     0.51774      .   S
    Zr46   O1268     1.55322      .   S
    N1266  O1269     0.51835      .   S
    Zr76   O1269     1.55504      .   S
    N1272  O1273     0.51835      .   S
    Zr69   O1273     1.55504      .   S
    N1272  O1274     0.51960      .   S
    Zr9    O1274     1.55879      .   S
    N1272  O1275     0.51774      .   S
    Zr39   O1275     1.55322      .   S
    N1276  O1277     0.51993      .   S
    Zr1    O1277     1.55978      .   S
    N1276  O1278     0.51782      .   S
    Zr2    O1278     1.55345      .   S
    N1276  O1279     0.51690      .   S
    Zr3    O1279     1.55071      .   S
