# CIF file generated by openbabel 2.4.90, see http://openbabel.sf.net
data_I
_chemical_name_common ''
_cell_length_a 39.222
_cell_length_b 26.018
_cell_length_c 27.887
_cell_angle_alpha 90
_cell_angle_beta 90
_cell_angle_gamma 90
_space_group_name_H-M_alt 'P 1'
_space_group_name_Hall 'P 1'
loop_
    _symmetry_equiv_pos_as_xyz
    x,y,z
loop_
    _atom_site_label
    _atom_site_type_symbol
    _atom_site_fract_x
    _atom_site_fract_y
    _atom_site_fract_z
    _atom_site_occupancy
    C0      C    0.01253   0.19131   0.70101   1.000
    C1      C    0.98690   0.30022   0.55889   1.000
    C2      C    0.93974   0.21879   0.63324   1.000
    C3      C    0.98664   0.31888   0.68418   1.000
    C4      C    0.01232   0.17290   0.57488   1.000
    C5      C    0.05965   0.27276   0.62667   1.000
    C6      C    0.96218   0.29020   0.62420   1.000
    C7      C    0.98509   0.17840   0.63840   1.000
    C8      C    0.15257   0.48090   0.83440   1.000
    C9      C    0.01749   0.33460   0.61870   1.000
    C10     C    0.02540   0.37080   0.61410   1.000
    C11     C    0.84829   0.00150   0.83270   1.000
    C12     C    0.81786   0.05430   0.78430   1.000
    C13     C    0.81637   0.05290   0.48230   1.000
    C14     C    0.15218   0.48590   0.42510   1.000
    C15     C    0.00919   0.18980   0.26150   1.000
    C16     C    0.07849   0.33900   0.66810   1.000
    C17     C    0.84718   0.00610   0.42950   1.000
    C18     C    0.18238   0.41970   0.45740   1.000
    C19     C    0.92138   0.15060   0.59370   1.000
    C20     C    0.97310   0.38070   0.55130   1.000
    C21     C    0.03232   0.36580   0.71000   1.000
    C22     C    0.96593   0.24110   0.70180   1.000
    C23     C    0.95170   0.23900   0.73140   1.000
    C24     C    0.00865   0.18130   0.49660   1.000
    C25     C    0.03140   0.09590   0.58160   1.000
    C26     C    0.18320   0.42280   0.79280   1.000
    C27     C    0.99170   0.27270   0.27480   1.000
    C28     C    0.92244   0.16310   0.68750   1.000
    C29     C    0.97340   0.39880   0.67280   1.000
    C30     C    0.07750   0.32590   0.57010   1.000
    C31     C    0.96944   0.14400   0.73090   1.000
    C32     C    0.06330   0.36450   0.70090   1.000
    C33     C    0.03126   0.11280   0.70830   1.000
    C34     C    0.99240   0.26680   0.48470   1.000
    C35     C    0.12380   0.42160   0.46680   1.000
    C36     C    0.15610   0.44590   0.80290   1.000
    C37     C    0.08540   0.39550   0.73350   1.000
    C38     C    0.91780   0.10480   0.75050   1.000
    C39     C    0.03102   0.33990   0.52340   1.000
    C40     C    0.84530   0.03600   0.80120   1.000
    C41     C    0.93690   0.12120   0.56510   1.000
    C42     C    0.93830   0.14080   0.72040   1.000
    C43     C    0.15530   0.44460   0.44850   1.000
    C44     C    0.84360   0.03460   0.46570   1.000
    C45     C    0.88300   0.09610   0.74860   1.000
    C46     C    0.86670   0.11160   0.72790   1.000
    C47     C    0.00190   0.21360   0.41900   1.000
    C48     C    0.90586   0.03190   0.47350   1.000
    C49     C    0.93159   0.05560   0.50170   1.000
    C50     C    0.91536   0.08830   0.53550   1.000
    C51     C    0.87961   0.08480   0.52810   1.000
    C52     C    0.86260   0.10270   0.54580   1.000
    C53     C    0.87374   0.05000   0.48980   1.000
    C54     C    0.90720   0.04810   0.80460   1.000
    C55     C    0.00120   0.22120   0.47170   1.000
    C56     C    0.12390   0.43050   0.77770   1.000
    C57     C    0.09490   0.45070   0.79150   1.000
    C58     C    0.11780   0.38570   0.50180   1.000
    C59     C    0.13430   0.36870   0.52100   1.000
    C60     C    0.07180   0.42850   0.76420   1.000
    C61     C    0.09250   0.43700   0.44950   1.000
    C62     C    0.02540   0.26480   0.68120   1.000
    C63     C    0.02508   0.25010   0.57660   1.000
    C64     C    0.04737   0.18550   0.63710   1.000
    C65     C    0.06730   0.16170   0.64000   1.000
    C66     C    0.96573   0.22070   0.56150   1.000
    C67     C    0.95140   0.21030   0.53340   1.000
    C68     C    0.06200   0.34550   0.53430   1.000
    C69     C    0.96844   0.11880   0.55800   1.000
    C70     C    0.06740   0.41130   0.47150   1.000
    C71     C    0.99610   0.24630   0.38030   1.000
    C72     C    0.98990   0.28150   0.38150   1.000
    C73     C    0.11940   0.39550   0.74070   1.000
    C74     C    0.13630   0.37600   0.72440   1.000
    C75     C    0.00960   0.16550   0.40180   1.000
    C76     C    0.00920   0.16860   0.35400   1.000
    C77     C    0.93150   0.07540   0.78400   1.000
    C78     C    0.08290   0.37910   0.50350   1.000
    C79     C    0.00110   0.21720   0.34060   1.000
    C80     C    0.99990   0.22740   0.28830   1.000
    C81     C    0.87770   0.06020   0.78320   1.000
    C82     C    0.92910   0.19320   0.48150   1.000
    C83     C    0.91200   0.19790   0.40500   1.000
    C84     C    0.91870   0.21710   0.44850   1.000
    C85     C    0.91480   0.25280   0.45330   1.000
    C86     C    0.91560   0.14600   0.39310   1.000
    C87     C    0.92320   0.12680   0.42140   1.000
    C88     C    0.93240   0.14230   0.36740   1.000
    C89     C    0.89360   0.13240   0.38230   1.000
    C90     C    0.90330   0.23490   0.36330   1.000
    C91     C    0.90270   0.27030   0.37520   1.000
    C92     C    0.88090   0.22580   0.35000   1.000
    C93     C    0.92060   0.23190   0.33810   1.000
    C94     C    0.08440   0.09640   0.61410   1.000
    C95     C    0.06060   0.07680   0.58750   1.000
    C96     C    0.08330   0.10610   0.67770   1.000
    C97     C    0.06130   0.09450   0.70990   1.000
    C98     C    0.02020   0.43920   0.62740   1.000
    C99     C    0.03650   0.02740   0.69200   1.000
    C100    C    0.94940   0.41070   0.55840   1.000
    C101    C    0.01950   0.07210   0.68880   1.000
    C102    C    0.07190   0.02240   0.70900   1.000
    C103    C    0.99190   0.43490   0.65410   1.000
    C104    C    0.93460   0.44580   0.53580   1.000
    C105    C    0.91630   0.98890   0.37820   1.000
    C106    C    0.92920   0.98990   0.88270   1.000
    C107    C    0.92650   0.23900   0.78340   1.000
    C108    C    0.95270   0.00340   0.38050   1.000
    C109    C    0.91100   0.93210   0.37480   1.000
    C110    C    0.99890   0.06890   0.46400   1.000
    C111    C    0.00000   0.00000   0.49470   1.000
    C112    C    0.04460   0.09440   0.46380   1.000
    C113    C    0.91500   0.23250   0.86340   1.000
    C114    C    0.92970   0.22020   0.82010   1.000
    C115    C    0.91490   0.19710   0.90880   1.000
    C116    C    0.89760   0.28350   0.88700   1.000
    C117    C    0.00060   0.42760   0.79830   1.000
    C118    C    0.00000   0.50000   0.75900   1.000
    C119    C    0.00020   0.38100   0.42900   1.000
    C120    C    0.92600   0.40100   0.38800   1.000
    C121    C    0.99900   0.40400   0.38800   1.000
    C122    C    0.94900   0.39200   0.40100   1.000
    C123    C    0.00270   0.04240   0.78090   1.000
    C124    C    0.00060   0.45600   0.75900   1.000
    C125    C    0.95730   0.40800   0.78800   1.000
    C126    C    0.98747   0.80869   0.70101   1.000
    C127    C    0.26253   0.05869   0.95101   1.000
    C128    C    0.23747   0.44131   0.95101   1.000
    C129    C    0.51253   0.19131   0.20101   1.000
    C130    C    0.48747   0.80869   0.20101   1.000
    C131    C    0.76253   0.05869   0.45101   1.000
    C132    C    0.73747   0.44131   0.45101   1.000
    C133    C    0.01253   0.69131   0.20101   1.000
    C134    C    0.98747   0.30869   0.20101   1.000
    C135    C    0.26253   0.55869   0.45101   1.000
    C136    C    0.23747   0.94131   0.45101   1.000
    C137    C    0.51253   0.69131   0.70101   1.000
    C138    C    0.48747   0.30869   0.70101   1.000
    C139    C    0.76253   0.55869   0.95101   1.000
    C140    C    0.73747   0.94131   0.95101   1.000
    C141    C    0.01310   0.69978   0.55889   1.000
    C142    C    0.23690   0.94978   0.80889   1.000
    C143    C    0.26310   0.55022   0.80889   1.000
    C144    C    0.48690   0.30022   0.05889   1.000
    C145    C    0.51310   0.69978   0.05889   1.000
    C146    C    0.73690   0.94978   0.30889   1.000
    C147    C    0.76310   0.55022   0.30889   1.000
    C148    C    0.98690   0.80022   0.05889   1.000
    C149    C    0.01310   0.19978   0.05889   1.000
    C150    C    0.23690   0.44978   0.30889   1.000
    C151    C    0.26310   0.05022   0.30889   1.000
    C152    C    0.48690   0.80022   0.55889   1.000
    C153    C    0.51310   0.19978   0.55889   1.000
    C154    C    0.73690   0.44978   0.80889   1.000
    C155    C    0.76310   0.05022   0.80889   1.000
    C156    C    0.06026   0.78121   0.63324   1.000
    C157    C    0.18974   0.03121   0.88324   1.000
    C158    C    0.31026   0.46879   0.88324   1.000
    C159    C    0.43974   0.21879   0.13324   1.000
    C160    C    0.56026   0.78121   0.13324   1.000
    C161    C    0.68974   0.03121   0.38324   1.000
    C162    C    0.81026   0.46879   0.38324   1.000
    C163    C    0.93974   0.71879   0.13324   1.000
    C164    C    0.06026   0.28121   0.13324   1.000
    C165    C    0.18974   0.53121   0.38324   1.000
    C166    C    0.31026   0.96879   0.38324   1.000
    C167    C    0.43974   0.71879   0.63324   1.000
    C168    C    0.56026   0.28121   0.63324   1.000
    C169    C    0.68974   0.53121   0.88324   1.000
    C170    C    0.81026   0.96879   0.88324   1.000
    C171    C    0.01336   0.68112   0.68418   1.000
    C172    C    0.23664   0.93112   0.93418   1.000
    C173    C    0.26336   0.56888   0.93418   1.000
    C174    C    0.48664   0.31888   0.18418   1.000
    C175    C    0.51336   0.68112   0.18418   1.000
    C176    C    0.73664   0.93112   0.43418   1.000
    C177    C    0.76336   0.56888   0.43418   1.000
    C178    C    0.98664   0.81888   0.18418   1.000
    C179    C    0.01336   0.18112   0.18418   1.000
    C180    C    0.23664   0.43112   0.43418   1.000
    C181    C    0.26336   0.06888   0.43418   1.000
    C182    C    0.48664   0.81888   0.68418   1.000
    C183    C    0.51336   0.18112   0.68418   1.000
    C184    C    0.73664   0.43112   0.93418   1.000
    C185    C    0.76336   0.06888   0.93418   1.000
    C186    C    0.98768   0.82710   0.57488   1.000
    C187    C    0.26232   0.07710   0.82488   1.000
    C188    C    0.23768   0.42290   0.82488   1.000
    C189    C    0.51232   0.17290   0.07488   1.000
    C190    C    0.48768   0.82710   0.07488   1.000
    C191    C    0.76232   0.07710   0.32488   1.000
    C192    C    0.73768   0.42290   0.32488   1.000
    C193    C    0.01232   0.67290   0.07488   1.000
    C194    C    0.98768   0.32710   0.07488   1.000
    C195    C    0.26232   0.57710   0.32488   1.000
    C196    C    0.23768   0.92290   0.32488   1.000
    C197    C    0.51232   0.67290   0.57488   1.000
    C198    C    0.48768   0.32710   0.57488   1.000
    C199    C    0.76232   0.57710   0.82488   1.000
    C200    C    0.73768   0.92290   0.82488   1.000
    C201    C    0.94035   0.72724   0.62667   1.000
    C202    C    0.30965   0.97724   0.87667   1.000
    C203    C    0.19035   0.52276   0.87667   1.000
    C204    C    0.55965   0.27276   0.12667   1.000
    C205    C    0.44035   0.72724   0.12667   1.000
    C206    C    0.80965   0.97724   0.37667   1.000
    C207    C    0.69035   0.52276   0.37667   1.000
    C208    C    0.05965   0.77276   0.12667   1.000
    C209    C    0.94035   0.22724   0.12667   1.000
    C210    C    0.30965   0.47724   0.37667   1.000
    C211    C    0.19035   0.02276   0.37667   1.000
    C212    C    0.55965   0.77276   0.62667   1.000
    C213    C    0.44035   0.22724   0.62667   1.000
    C214    C    0.80965   0.47724   0.87667   1.000
    C215    C    0.69035   0.02276   0.87667   1.000
    C216    C    0.03782   0.70980   0.62420   1.000
    C217    C    0.21218   0.95980   0.87420   1.000
    C218    C    0.28782   0.54020   0.87420   1.000
    C219    C    0.46218   0.29020   0.12420   1.000
    C220    C    0.53782   0.70980   0.12420   1.000
    C221    C    0.71218   0.95980   0.37420   1.000
    C222    C    0.78782   0.54020   0.37420   1.000
    C223    C    0.96218   0.79020   0.12420   1.000
    C224    C    0.03782   0.20980   0.12420   1.000
    C225    C    0.21218   0.45980   0.37420   1.000
    C226    C    0.28782   0.04020   0.37420   1.000
    C227    C    0.46218   0.79020   0.62420   1.000
    C228    C    0.53782   0.20980   0.62420   1.000
    C229    C    0.71218   0.45980   0.87420   1.000
    C230    C    0.78782   0.04020   0.87420   1.000
    C231    C    0.01491   0.82160   0.63840   1.000
    C232    C    0.23509   0.07160   0.88840   1.000
    C233    C    0.26491   0.42840   0.88840   1.000
    C234    C    0.48509   0.17840   0.13840   1.000
    C235    C    0.51491   0.82160   0.13840   1.000
    C236    C    0.73509   0.07160   0.38840   1.000
    C237    C    0.76491   0.42840   0.38840   1.000
    C238    C    0.98509   0.67840   0.13840   1.000
    C239    C    0.01491   0.32160   0.13840   1.000
    C240    C    0.23509   0.57160   0.38840   1.000
    C241    C    0.26491   0.92840   0.38840   1.000
    C242    C    0.48509   0.67840   0.63840   1.000
    C243    C    0.51491   0.32160   0.63840   1.000
    C244    C    0.73509   0.57160   0.88840   1.000
    C245    C    0.76491   0.92840   0.88840   1.000
    C246    C    0.84743   0.51910   0.83440   1.000
    C247    C    0.40257   0.76910   0.08440   1.000
    C248    C    0.09743   0.73090   0.08440   1.000
    C249    C    0.65257   0.48090   0.33440   1.000
    C250    C    0.34743   0.51910   0.33440   1.000
    C251    C    0.90257   0.76910   0.58440   1.000
    C252    C    0.59743   0.73090   0.58440   1.000
    C253    C    0.15257   0.98090   0.33440   1.000
    C254    C    0.84743   0.01910   0.33440   1.000
    C255    C    0.40257   0.26910   0.58440   1.000
    C256    C    0.09743   0.23090   0.58440   1.000
    C257    C    0.65257   0.98090   0.83440   1.000
    C258    C    0.34743   0.01910   0.83440   1.000
    C259    C    0.90257   0.26910   0.08440   1.000
    C260    C    0.59743   0.23090   0.08440   1.000
    C261    C    0.98251   0.66540   0.61870   1.000
    C262    C    0.26749   0.91540   0.86870   1.000
    C263    C    0.23251   0.58460   0.86870   1.000
    C264    C    0.51749   0.33460   0.11870   1.000
    C265    C    0.48251   0.66540   0.11870   1.000
    C266    C    0.76749   0.91540   0.36870   1.000
    C267    C    0.73251   0.58460   0.36870   1.000
    C268    C    0.01749   0.83460   0.11870   1.000
    C269    C    0.98251   0.16540   0.11870   1.000
    C270    C    0.26749   0.41540   0.36870   1.000
    C271    C    0.23251   0.08460   0.36870   1.000
    C272    C    0.51749   0.83460   0.61870   1.000
    C273    C    0.48251   0.16540   0.61870   1.000
    C274    C    0.76749   0.41540   0.86870   1.000
    C275    C    0.73251   0.08460   0.86870   1.000
    C276    C    0.97460   0.62920   0.61410   1.000
    C277    C    0.27540   0.87920   0.86410   1.000
    C278    C    0.22460   0.62080   0.86410   1.000
    C279    C    0.52540   0.37080   0.11410   1.000
    C280    C    0.47460   0.62920   0.11410   1.000
    C281    C    0.77540   0.87920   0.36410   1.000
    C282    C    0.72460   0.62080   0.36410   1.000
    C283    C    0.02540   0.87080   0.11410   1.000
    C284    C    0.97460   0.12920   0.11410   1.000
    C285    C    0.27540   0.37920   0.36410   1.000
    C286    C    0.22460   0.12080   0.36410   1.000
    C287    C    0.52540   0.87080   0.61410   1.000
    C288    C    0.47460   0.12920   0.61410   1.000
    C289    C    0.77540   0.37920   0.86410   1.000
    C290    C    0.72460   0.12080   0.86410   1.000
    C291    C    0.15171   0.99850   0.83270   1.000
    C292    C    0.09829   0.24850   0.08270   1.000
    C293    C    0.40171   0.25150   0.08270   1.000
    C294    C    0.34829   0.00150   0.33270   1.000
    C295    C    0.65171   0.99850   0.33270   1.000
    C296    C    0.59829   0.24850   0.58270   1.000
    C297    C    0.90171   0.25150   0.58270   1.000
    C298    C    0.84829   0.50150   0.33270   1.000
    C299    C    0.15171   0.49850   0.33270   1.000
    C300    C    0.09829   0.74850   0.58270   1.000
    C301    C    0.40171   0.75150   0.58270   1.000
    C302    C    0.34829   0.50150   0.83270   1.000
    C303    C    0.65171   0.49850   0.83270   1.000
    C304    C    0.59829   0.74850   0.08270   1.000
    C305    C    0.90171   0.75150   0.08270   1.000
    C306    C    0.18214   0.94570   0.78430   1.000
    C307    C    0.06786   0.19570   0.03430   1.000
    C308    C    0.43214   0.30430   0.03430   1.000
    C309    C    0.31786   0.05430   0.28430   1.000
    C310    C    0.68214   0.94570   0.28430   1.000
    C311    C    0.56786   0.19570   0.53430   1.000
    C312    C    0.93214   0.30430   0.53430   1.000
    C313    C    0.81786   0.55430   0.28430   1.000
    C314    C    0.18214   0.44570   0.28430   1.000
    C315    C    0.06786   0.69570   0.53430   1.000
    C316    C    0.43214   0.80430   0.53430   1.000
    C317    C    0.31786   0.55430   0.78430   1.000
    C318    C    0.68214   0.44570   0.78430   1.000
    C319    C    0.56786   0.69570   0.03430   1.000
    C320    C    0.93214   0.80430   0.03430   1.000
    C321    C    0.18363   0.94710   0.48230   1.000
    C322    C    0.06637   0.19710   0.73230   1.000
    C323    C    0.43363   0.30290   0.73230   1.000
    C324    C    0.31637   0.05290   0.98230   1.000
    C325    C    0.68363   0.94710   0.98230   1.000
    C326    C    0.56637   0.19710   0.23230   1.000
    C327    C    0.93363   0.30290   0.23230   1.000
    C328    C    0.81637   0.55290   0.98230   1.000
    C329    C    0.18363   0.44710   0.98230   1.000
    C330    C    0.06637   0.69710   0.23230   1.000
    C331    C    0.43363   0.80290   0.23230   1.000
    C332    C    0.31637   0.55290   0.48230   1.000
    C333    C    0.68363   0.44710   0.48230   1.000
    C334    C    0.56637   0.69710   0.73230   1.000
    C335    C    0.93363   0.80290   0.73230   1.000
    C336    C    0.84782   0.51410   0.42510   1.000
    C337    C    0.40218   0.76410   0.67510   1.000
    C338    C    0.09782   0.73590   0.67510   1.000
    C339    C    0.65218   0.48590   0.92510   1.000
    C340    C    0.34782   0.51410   0.92510   1.000
    C341    C    0.90218   0.76410   0.17510   1.000
    C342    C    0.59782   0.73590   0.17510   1.000
    C343    C    0.15218   0.98590   0.92510   1.000
    C344    C    0.84782   0.01410   0.92510   1.000
    C345    C    0.40218   0.26410   0.17510   1.000
    C346    C    0.09782   0.23590   0.17510   1.000
    C347    C    0.65218   0.98590   0.42510   1.000
    C348    C    0.34782   0.01410   0.42510   1.000
    C349    C    0.90218   0.26410   0.67510   1.000
    C350    C    0.59782   0.23590   0.67510   1.000
    C351    C    0.99081   0.81020   0.26150   1.000
    C352    C    0.25919   0.06020   0.51150   1.000
    C353    C    0.24081   0.43980   0.51150   1.000
    C354    C    0.50919   0.18980   0.76150   1.000
    C355    C    0.49081   0.81020   0.76150   1.000
    C356    C    0.75919   0.06020   0.01150   1.000
    C357    C    0.74081   0.43980   0.01150   1.000
    C358    C    0.00919   0.68980   0.76150   1.000
    C359    C    0.99081   0.31020   0.76150   1.000
    C360    C    0.25919   0.56020   0.01150   1.000
    C361    C    0.24081   0.93980   0.01150   1.000
    C362    C    0.50919   0.68980   0.26150   1.000
    C363    C    0.49081   0.31020   0.26150   1.000
    C364    C    0.75919   0.56020   0.51150   1.000
    C365    C    0.74081   0.93980   0.51150   1.000
    C366    C    0.92151   0.66100   0.66810   1.000
    C367    C    0.32849   0.91100   0.91810   1.000
    C368    C    0.17151   0.58900   0.91810   1.000
    C369    C    0.57849   0.33900   0.16810   1.000
    C370    C    0.42151   0.66100   0.16810   1.000
    C371    C    0.82849   0.91100   0.41810   1.000
    C372    C    0.67151   0.58900   0.41810   1.000
    C373    C    0.07849   0.83900   0.16810   1.000
    C374    C    0.92151   0.16100   0.16810   1.000
    C375    C    0.32849   0.41100   0.41810   1.000
    C376    C    0.17151   0.08900   0.41810   1.000
    C377    C    0.57849   0.83900   0.66810   1.000
    C378    C    0.42151   0.16100   0.66810   1.000
    C379    C    0.82849   0.41100   0.91810   1.000
    C380    C    0.67151   0.08900   0.91810   1.000
    C381    C    0.15282   0.99390   0.42950   1.000
    C382    C    0.09718   0.24390   0.67950   1.000
    C383    C    0.40282   0.25610   0.67950   1.000
    C384    C    0.34718   0.00610   0.92950   1.000
    C385    C    0.65282   0.99390   0.92950   1.000
    C386    C    0.59718   0.24390   0.17950   1.000
    C387    C    0.90282   0.25610   0.17950   1.000
    C388    C    0.84718   0.50610   0.92950   1.000
    C389    C    0.15282   0.49390   0.92950   1.000
    C390    C    0.09718   0.74390   0.17950   1.000
    C391    C    0.40282   0.75610   0.17950   1.000
    C392    C    0.34718   0.50610   0.42950   1.000
    C393    C    0.65282   0.49390   0.42950   1.000
    C394    C    0.59718   0.74390   0.67950   1.000
    C395    C    0.90282   0.75610   0.67950   1.000
    C396    C    0.81762   0.58030   0.45740   1.000
    C397    C    0.43238   0.83030   0.70740   1.000
    C398    C    0.06762   0.66970   0.70740   1.000
    C399    C    0.68238   0.41970   0.95740   1.000
    C400    C    0.31762   0.58030   0.95740   1.000
    C401    C    0.93238   0.83030   0.20740   1.000
    C402    C    0.56762   0.66970   0.20740   1.000
    C403    C    0.18238   0.91970   0.95740   1.000
    C404    C    0.81762   0.08030   0.95740   1.000
    C405    C    0.43238   0.33030   0.20740   1.000
    C406    C    0.06762   0.16970   0.20740   1.000
    C407    C    0.68238   0.91970   0.45740   1.000
    C408    C    0.31762   0.08030   0.45740   1.000
    C409    C    0.93238   0.33030   0.70740   1.000
    C410    C    0.56762   0.16970   0.70740   1.000
    C411    C    0.07862   0.84940   0.59370   1.000
    C412    C    0.17138   0.09940   0.84370   1.000
    C413    C    0.32862   0.40060   0.84370   1.000
    C414    C    0.42138   0.15060   0.09370   1.000
    C415    C    0.57862   0.84940   0.09370   1.000
    C416    C    0.67138   0.09940   0.34370   1.000
    C417    C    0.82862   0.40060   0.34370   1.000
    C418    C    0.92138   0.65060   0.09370   1.000
    C419    C    0.07862   0.34940   0.09370   1.000
    C420    C    0.17138   0.59940   0.34370   1.000
    C421    C    0.32862   0.90060   0.34370   1.000
    C422    C    0.42138   0.65060   0.59370   1.000
    C423    C    0.57862   0.34940   0.59370   1.000
    C424    C    0.67138   0.59940   0.84370   1.000
    C425    C    0.82862   0.90060   0.84370   1.000
    C426    C    0.02690   0.61930   0.55130   1.000
    C427    C    0.22310   0.86930   0.80130   1.000
    C428    C    0.27690   0.63070   0.80130   1.000
    C429    C    0.47310   0.38070   0.05130   1.000
    C430    C    0.52690   0.61930   0.05130   1.000
    C431    C    0.72310   0.86930   0.30130   1.000
    C432    C    0.77690   0.63070   0.30130   1.000
    C433    C    0.97310   0.88070   0.05130   1.000
    C434    C    0.02690   0.11930   0.05130   1.000
    C435    C    0.22310   0.36930   0.30130   1.000
    C436    C    0.27690   0.13070   0.30130   1.000
    C437    C    0.47310   0.88070   0.55130   1.000
    C438    C    0.52690   0.11930   0.55130   1.000
    C439    C    0.72310   0.36930   0.80130   1.000
    C440    C    0.77690   0.13070   0.80130   1.000
    C441    C    0.96768   0.63420   0.71000   1.000
    C442    C    0.28232   0.88420   0.96000   1.000
    C443    C    0.21768   0.61580   0.96000   1.000
    C444    C    0.53232   0.36580   0.21000   1.000
    C445    C    0.46768   0.63420   0.21000   1.000
    C446    C    0.78232   0.88420   0.46000   1.000
    C447    C    0.71768   0.61580   0.46000   1.000
    C448    C    0.03232   0.86580   0.21000   1.000
    C449    C    0.96768   0.13420   0.21000   1.000
    C450    C    0.28232   0.38420   0.46000   1.000
    C451    C    0.21768   0.11580   0.46000   1.000
    C452    C    0.53232   0.86580   0.71000   1.000
    C453    C    0.46768   0.13420   0.71000   1.000
    C454    C    0.78232   0.38420   0.96000   1.000
    C455    C    0.71768   0.11580   0.96000   1.000
    C456    C    0.03407   0.75890   0.70180   1.000
    C457    C    0.21593   0.00890   0.95180   1.000
    C458    C    0.28407   0.49110   0.95180   1.000
    C459    C    0.46593   0.24110   0.20180   1.000
    C460    C    0.53407   0.75890   0.20180   1.000
    C461    C    0.71593   0.00890   0.45180   1.000
    C462    C    0.78407   0.49110   0.45180   1.000
    C463    C    0.96593   0.74110   0.20180   1.000
    C464    C    0.03407   0.25890   0.20180   1.000
    C465    C    0.21593   0.50890   0.45180   1.000
    C466    C    0.28407   0.99110   0.45180   1.000
    C467    C    0.46593   0.74110   0.70180   1.000
    C468    C    0.53407   0.25890   0.70180   1.000
    C469    C    0.71593   0.50890   0.95180   1.000
    C470    C    0.78407   0.99110   0.95180   1.000
    C471    C    0.04830   0.76100   0.73140   1.000
    C472    C    0.20170   0.01100   0.98140   1.000
    C473    C    0.29830   0.48900   0.98140   1.000
    C474    C    0.45170   0.23900   0.23140   1.000
    C475    C    0.54830   0.76100   0.23140   1.000
    C476    C    0.70170   0.01100   0.48140   1.000
    C477    C    0.79830   0.48900   0.48140   1.000
    C478    C    0.95170   0.73900   0.23140   1.000
    C479    C    0.04830   0.26100   0.23140   1.000
    C480    C    0.20170   0.51100   0.48140   1.000
    C481    C    0.29830   0.98900   0.48140   1.000
    C482    C    0.45170   0.73900   0.73140   1.000
    C483    C    0.54830   0.26100   0.73140   1.000
    C484    C    0.70170   0.51100   0.98140   1.000
    C485    C    0.79830   0.98900   0.98140   1.000
    C486    C    0.99135   0.81870   0.49660   1.000
    C487    C    0.25865   0.06870   0.74660   1.000
    C488    C    0.24135   0.43130   0.74660   1.000
    C489    C    0.50865   0.18130   0.99660   1.000
    C490    C    0.49135   0.81870   0.99660   1.000
    C491    C    0.75865   0.06870   0.24660   1.000
    C492    C    0.74135   0.43130   0.24660   1.000
    C493    C    0.00865   0.68130   0.99660   1.000
    C494    C    0.99135   0.31870   0.99660   1.000
    C495    C    0.25865   0.56870   0.24660   1.000
    C496    C    0.24135   0.93130   0.24660   1.000
    C497    C    0.50865   0.68130   0.49660   1.000
    C498    C    0.49135   0.31870   0.49660   1.000
    C499    C    0.75865   0.56870   0.74660   1.000
    C500    C    0.74135   0.93130   0.74660   1.000
    C501    C    0.96860   0.90410   0.58160   1.000
    C502    C    0.28140   0.15410   0.83160   1.000
    C503    C    0.21860   0.34590   0.83160   1.000
    C504    C    0.53140   0.09590   0.08160   1.000
    C505    C    0.46860   0.90410   0.08160   1.000
    C506    C    0.78140   0.15410   0.33160   1.000
    C507    C    0.71860   0.34590   0.33160   1.000
    C508    C    0.03140   0.59590   0.08160   1.000
    C509    C    0.96860   0.40410   0.08160   1.000
    C510    C    0.28140   0.65410   0.33160   1.000
    C511    C    0.21860   0.84590   0.33160   1.000
    C512    C    0.53140   0.59590   0.58160   1.000
    C513    C    0.46860   0.40410   0.58160   1.000
    C514    C    0.78140   0.65410   0.83160   1.000
    C515    C    0.71860   0.84590   0.83160   1.000
    C516    C    0.81680   0.57720   0.79280   1.000
    C517    C    0.43320   0.82720   0.04280   1.000
    C518    C    0.06680   0.67280   0.04280   1.000
    C519    C    0.68320   0.42280   0.29280   1.000
    C520    C    0.31680   0.57720   0.29280   1.000
    C521    C    0.93320   0.82720   0.54280   1.000
    C522    C    0.56680   0.67280   0.54280   1.000
    C523    C    0.18320   0.92280   0.29280   1.000
    C524    C    0.81680   0.07720   0.29280   1.000
    C525    C    0.43320   0.32720   0.54280   1.000
    C526    C    0.06680   0.17280   0.54280   1.000
    C527    C    0.68320   0.92280   0.79280   1.000
    C528    C    0.31680   0.07720   0.79280   1.000
    C529    C    0.93320   0.32720   0.04280   1.000
    C530    C    0.56680   0.17280   0.04280   1.000
    C531    C    0.00830   0.72730   0.27480   1.000
    C532    C    0.24170   0.97730   0.52480   1.000
    C533    C    0.25830   0.52270   0.52480   1.000
    C534    C    0.49170   0.27270   0.77480   1.000
    C535    C    0.50830   0.72730   0.77480   1.000
    C536    C    0.74170   0.97730   0.02480   1.000
    C537    C    0.75830   0.52270   0.02480   1.000
    C538    C    0.99170   0.77270   0.77480   1.000
    C539    C    0.00830   0.22730   0.77480   1.000
    C540    C    0.24170   0.47730   0.02480   1.000
    C541    C    0.25830   0.02270   0.02480   1.000
    C542    C    0.49170   0.77270   0.27480   1.000
    C543    C    0.50830   0.22730   0.27480   1.000
    C544    C    0.74170   0.47730   0.52480   1.000
    C545    C    0.75830   0.02270   0.52480   1.000
    C546    C    0.07756   0.83690   0.68750   1.000
    C547    C    0.17244   0.08690   0.93750   1.000
    C548    C    0.32756   0.41310   0.93750   1.000
    C549    C    0.42244   0.16310   0.18750   1.000
    C550    C    0.57756   0.83690   0.18750   1.000
    C551    C    0.67244   0.08690   0.43750   1.000
    C552    C    0.82756   0.41310   0.43750   1.000
    C553    C    0.92244   0.66310   0.18750   1.000
    C554    C    0.07756   0.33690   0.18750   1.000
    C555    C    0.17244   0.58690   0.43750   1.000
    C556    C    0.32756   0.91310   0.43750   1.000
    C557    C    0.42244   0.66310   0.68750   1.000
    C558    C    0.57756   0.33690   0.68750   1.000
    C559    C    0.67244   0.58690   0.93750   1.000
    C560    C    0.82756   0.91310   0.93750   1.000
    C561    C    0.02660   0.60120   0.67280   1.000
    C562    C    0.22340   0.85120   0.92280   1.000
    C563    C    0.27660   0.64880   0.92280   1.000
    C564    C    0.47340   0.39880   0.17280   1.000
    C565    C    0.52660   0.60120   0.17280   1.000
    C566    C    0.72340   0.85120   0.42280   1.000
    C567    C    0.77660   0.64880   0.42280   1.000
    C568    C    0.97340   0.89880   0.17280   1.000
    C569    C    0.02660   0.10120   0.17280   1.000
    C570    C    0.22340   0.35120   0.42280   1.000
    C571    C    0.27660   0.14880   0.42280   1.000
    C572    C    0.47340   0.89880   0.67280   1.000
    C573    C    0.52660   0.10120   0.67280   1.000
    C574    C    0.72340   0.35120   0.92280   1.000
    C575    C    0.77660   0.14880   0.92280   1.000
    C576    C    0.92250   0.67410   0.57010   1.000
    C577    C    0.32750   0.92410   0.82010   1.000
    C578    C    0.17250   0.57590   0.82010   1.000
    C579    C    0.57750   0.32590   0.07010   1.000
    C580    C    0.42250   0.67410   0.07010   1.000
    C581    C    0.82750   0.92410   0.32010   1.000
    C582    C    0.67250   0.57590   0.32010   1.000
    C583    C    0.07750   0.82590   0.07010   1.000
    C584    C    0.92250   0.17410   0.07010   1.000
    C585    C    0.32750   0.42410   0.32010   1.000
    C586    C    0.17250   0.07590   0.32010   1.000
    C587    C    0.57750   0.82590   0.57010   1.000
    C588    C    0.42250   0.17410   0.57010   1.000
    C589    C    0.82750   0.42410   0.82010   1.000
    C590    C    0.67250   0.07590   0.82010   1.000
    C591    C    0.03056   0.85600   0.73090   1.000
    C592    C    0.21944   0.10600   0.98090   1.000
    C593    C    0.28056   0.39400   0.98090   1.000
    C594    C    0.46944   0.14400   0.23090   1.000
    C595    C    0.53056   0.85600   0.23090   1.000
    C596    C    0.71944   0.10600   0.48090   1.000
    C597    C    0.78056   0.39400   0.48090   1.000
    C598    C    0.96944   0.64400   0.23090   1.000
    C599    C    0.03056   0.35600   0.23090   1.000
    C600    C    0.21944   0.60600   0.48090   1.000
    C601    C    0.28056   0.89400   0.48090   1.000
    C602    C    0.46944   0.64400   0.73090   1.000
    C603    C    0.53056   0.35600   0.73090   1.000
    C604    C    0.71944   0.60600   0.98090   1.000
    C605    C    0.78056   0.89400   0.98090   1.000
    C606    C    0.93670   0.63550   0.70090   1.000
    C607    C    0.31330   0.88550   0.95090   1.000
    C608    C    0.18670   0.61450   0.95090   1.000
    C609    C    0.56330   0.36450   0.20090   1.000
    C610    C    0.43670   0.63550   0.20090   1.000
    C611    C    0.81330   0.88550   0.45090   1.000
    C612    C    0.68670   0.61450   0.45090   1.000
    C613    C    0.06330   0.86450   0.20090   1.000
    C614    C    0.93670   0.13550   0.20090   1.000
    C615    C    0.31330   0.38550   0.45090   1.000
    C616    C    0.18670   0.11450   0.45090   1.000
    C617    C    0.56330   0.86450   0.70090   1.000
    C618    C    0.43670   0.13550   0.70090   1.000
    C619    C    0.81330   0.38550   0.95090   1.000
    C620    C    0.68670   0.11450   0.95090   1.000
    C621    C    0.96874   0.88720   0.70830   1.000
    C622    C    0.28126   0.13720   0.95830   1.000
    C623    C    0.21874   0.36280   0.95830   1.000
    C624    C    0.53126   0.11280   0.20830   1.000
    C625    C    0.46874   0.88720   0.20830   1.000
    C626    C    0.78126   0.13720   0.45830   1.000
    C627    C    0.71874   0.36280   0.45830   1.000
    C628    C    0.03126   0.61280   0.20830   1.000
    C629    C    0.96874   0.38720   0.20830   1.000
    C630    C    0.28126   0.63720   0.45830   1.000
    C631    C    0.21874   0.86280   0.45830   1.000
    C632    C    0.53126   0.61280   0.70830   1.000
    C633    C    0.46874   0.38720   0.70830   1.000
    C634    C    0.78126   0.63720   0.95830   1.000
    C635    C    0.71874   0.86280   0.95830   1.000
    C636    C    0.00760   0.73320   0.48470   1.000
    C637    C    0.24240   0.98320   0.73470   1.000
    C638    C    0.25760   0.51680   0.73470   1.000
    C639    C    0.49240   0.26680   0.98470   1.000
    C640    C    0.50760   0.73320   0.98470   1.000
    C641    C    0.74240   0.98320   0.23470   1.000
    C642    C    0.75760   0.51680   0.23470   1.000
    C643    C    0.99240   0.76680   0.98470   1.000
    C644    C    0.00760   0.23320   0.98470   1.000
    C645    C    0.24240   0.48320   0.23470   1.000
    C646    C    0.25760   0.01680   0.23470   1.000
    C647    C    0.49240   0.76680   0.48470   1.000
    C648    C    0.50760   0.23320   0.48470   1.000
    C649    C    0.74240   0.48320   0.73470   1.000
    C650    C    0.75760   0.01680   0.73470   1.000
    C651    C    0.87620   0.57840   0.46680   1.000
    C652    C    0.37380   0.82840   0.71680   1.000
    C653    C    0.12620   0.67160   0.71680   1.000
    C654    C    0.62380   0.42160   0.96680   1.000
    C655    C    0.37620   0.57840   0.96680   1.000
    C656    C    0.87380   0.82840   0.21680   1.000
    C657    C    0.62620   0.67160   0.21680   1.000
    C658    C    0.12380   0.92160   0.96680   1.000
    C659    C    0.87620   0.07840   0.96680   1.000
    C660    C    0.37380   0.32840   0.21680   1.000
    C661    C    0.12620   0.17160   0.21680   1.000
    C662    C    0.62380   0.92160   0.46680   1.000
    C663    C    0.37620   0.07840   0.46680   1.000
    C664    C    0.87380   0.32840   0.71680   1.000
    C665    C    0.62620   0.17160   0.71680   1.000
    C666    C    0.84390   0.55410   0.80290   1.000
    C667    C    0.40610   0.80410   0.05290   1.000
    C668    C    0.09390   0.69590   0.05290   1.000
    C669    C    0.65610   0.44590   0.30290   1.000
    C670    C    0.34390   0.55410   0.30290   1.000
    C671    C    0.90610   0.80410   0.55290   1.000
    C672    C    0.59390   0.69590   0.55290   1.000
    C673    C    0.15610   0.94590   0.30290   1.000
    C674    C    0.84390   0.05410   0.30290   1.000
    C675    C    0.40610   0.30410   0.55290   1.000
    C676    C    0.09390   0.19590   0.55290   1.000
    C677    C    0.65610   0.94590   0.80290   1.000
    C678    C    0.34390   0.05410   0.80290   1.000
    C679    C    0.90610   0.30410   0.05290   1.000
    C680    C    0.59390   0.19590   0.05290   1.000
    C681    C    0.91460   0.60450   0.73350   1.000
    C682    C    0.33540   0.85450   0.98350   1.000
    C683    C    0.16460   0.64550   0.98350   1.000
    C684    C    0.58540   0.39550   0.23350   1.000
    C685    C    0.41460   0.60450   0.23350   1.000
    C686    C    0.83540   0.85450   0.48350   1.000
    C687    C    0.66460   0.64550   0.48350   1.000
    C688    C    0.08540   0.89550   0.23350   1.000
    C689    C    0.91460   0.10450   0.23350   1.000
    C690    C    0.33540   0.35450   0.48350   1.000
    C691    C    0.16460   0.14550   0.48350   1.000
    C692    C    0.58540   0.89550   0.73350   1.000
    C693    C    0.41460   0.10450   0.73350   1.000
    C694    C    0.83540   0.35450   0.98350   1.000
    C695    C    0.66460   0.14550   0.98350   1.000
    C696    C    0.08220   0.89520   0.75050   1.000
    C697    C    0.16780   0.14520   0.00050   1.000
    C698    C    0.33220   0.35480   0.00050   1.000
    C699    C    0.41780   0.10480   0.25050   1.000
    C700    C    0.58220   0.89520   0.25050   1.000
    C701    C    0.66780   0.14520   0.50050   1.000
    C702    C    0.83220   0.35480   0.50050   1.000
    C703    C    0.91780   0.60480   0.25050   1.000
    C704    C    0.08220   0.39520   0.25050   1.000
    C705    C    0.16780   0.64520   0.50050   1.000
    C706    C    0.33220   0.85480   0.50050   1.000
    C707    C    0.41780   0.60480   0.75050   1.000
    C708    C    0.58220   0.39520   0.75050   1.000
    C709    C    0.66780   0.64520   0.00050   1.000
    C710    C    0.83220   0.85480   0.00050   1.000
    C711    C    0.96898   0.66010   0.52340   1.000
    C712    C    0.28102   0.91010   0.77340   1.000
    C713    C    0.21898   0.58990   0.77340   1.000
    C714    C    0.53102   0.33990   0.02340   1.000
    C715    C    0.46898   0.66010   0.02340   1.000
    C716    C    0.78102   0.91010   0.27340   1.000
    C717    C    0.71898   0.58990   0.27340   1.000
    C718    C    0.03102   0.83990   0.02340   1.000
    C719    C    0.96898   0.16010   0.02340   1.000
    C720    C    0.28102   0.41010   0.27340   1.000
    C721    C    0.21898   0.08990   0.27340   1.000
    C722    C    0.53102   0.83990   0.52340   1.000
    C723    C    0.46898   0.16010   0.52340   1.000
    C724    C    0.78102   0.41010   0.77340   1.000
    C725    C    0.71898   0.08990   0.77340   1.000
    C726    C    0.15470   0.96400   0.80120   1.000
    C727    C    0.09530   0.21400   0.05120   1.000
    C728    C    0.40470   0.28600   0.05120   1.000
    C729    C    0.34530   0.03600   0.30120   1.000
    C730    C    0.65470   0.96400   0.30120   1.000
    C731    C    0.59530   0.21400   0.55120   1.000
    C732    C    0.90470   0.28600   0.55120   1.000
    C733    C    0.84530   0.53600   0.30120   1.000
    C734    C    0.15470   0.46400   0.30120   1.000
    C735    C    0.09530   0.71400   0.55120   1.000
    C736    C    0.40470   0.78600   0.55120   1.000
    C737    C    0.34530   0.53600   0.80120   1.000
    C738    C    0.65470   0.46400   0.80120   1.000
    C739    C    0.59530   0.71400   0.05120   1.000
    C740    C    0.90470   0.78600   0.05120   1.000
    C741    C    0.06310   0.87880   0.56510   1.000
    C742    C    0.18690   0.12880   0.81510   1.000
    C743    C    0.31310   0.37120   0.81510   1.000
    C744    C    0.43690   0.12120   0.06510   1.000
    C745    C    0.56310   0.87880   0.06510   1.000
    C746    C    0.68690   0.12880   0.31510   1.000
    C747    C    0.81310   0.37120   0.31510   1.000
    C748    C    0.93690   0.62120   0.06510   1.000
    C749    C    0.06310   0.37880   0.06510   1.000
    C750    C    0.18690   0.62880   0.31510   1.000
    C751    C    0.31310   0.87120   0.31510   1.000
    C752    C    0.43690   0.62120   0.56510   1.000
    C753    C    0.56310   0.37880   0.56510   1.000
    C754    C    0.68690   0.62880   0.81510   1.000
    C755    C    0.81310   0.87120   0.81510   1.000
    C756    C    0.06170   0.85920   0.72040   1.000
    C757    C    0.18830   0.10920   0.97040   1.000
    C758    C    0.31170   0.39080   0.97040   1.000
    C759    C    0.43830   0.14080   0.22040   1.000
    C760    C    0.56170   0.85920   0.22040   1.000
    C761    C    0.68830   0.10920   0.47040   1.000
    C762    C    0.81170   0.39080   0.47040   1.000
    C763    C    0.93830   0.64080   0.22040   1.000
    C764    C    0.06170   0.35920   0.22040   1.000
    C765    C    0.18830   0.60920   0.47040   1.000
    C766    C    0.31170   0.89080   0.47040   1.000
    C767    C    0.43830   0.64080   0.72040   1.000
    C768    C    0.56170   0.35920   0.72040   1.000
    C769    C    0.68830   0.60920   0.97040   1.000
    C770    C    0.81170   0.89080   0.97040   1.000
    C771    C    0.84470   0.55540   0.44850   1.000
    C772    C    0.40530   0.80540   0.69850   1.000
    C773    C    0.09470   0.69460   0.69850   1.000
    C774    C    0.65530   0.44460   0.94850   1.000
    C775    C    0.34470   0.55540   0.94850   1.000
    C776    C    0.90530   0.80540   0.19850   1.000
    C777    C    0.59470   0.69460   0.19850   1.000
    C778    C    0.15530   0.94460   0.94850   1.000
    C779    C    0.84470   0.05540   0.94850   1.000
    C780    C    0.40530   0.30540   0.19850   1.000
    C781    C    0.09470   0.19460   0.19850   1.000
    C782    C    0.65530   0.94460   0.44850   1.000
    C783    C    0.34470   0.05540   0.44850   1.000
    C784    C    0.90530   0.30540   0.69850   1.000
    C785    C    0.59470   0.19460   0.69850   1.000
    C786    C    0.15640   0.96540   0.46570   1.000
    C787    C    0.09360   0.21540   0.71570   1.000
    C788    C    0.40640   0.28460   0.71570   1.000
    C789    C    0.34360   0.03460   0.96570   1.000
    C790    C    0.65640   0.96540   0.96570   1.000
    C791    C    0.59360   0.21540   0.21570   1.000
    C792    C    0.90640   0.28460   0.21570   1.000
    C793    C    0.84360   0.53460   0.96570   1.000
    C794    C    0.15640   0.46540   0.96570   1.000
    C795    C    0.09360   0.71540   0.21570   1.000
    C796    C    0.40640   0.78460   0.21570   1.000
    C797    C    0.34360   0.53460   0.46570   1.000
    C798    C    0.65640   0.46540   0.46570   1.000
    C799    C    0.59360   0.71540   0.71570   1.000
    C800    C    0.90640   0.78460   0.71570   1.000
    C801    C    0.11700   0.90390   0.74860   1.000
    C802    C    0.13300   0.15390   0.99860   1.000
    C803    C    0.36700   0.34610   0.99860   1.000
    C804    C    0.38300   0.09610   0.24860   1.000
    C805    C    0.61700   0.90390   0.24860   1.000
    C806    C    0.63300   0.15390   0.49860   1.000
    C807    C    0.86700   0.34610   0.49860   1.000
    C808    C    0.88300   0.59610   0.24860   1.000
    C809    C    0.11700   0.40390   0.24860   1.000
    C810    C    0.13300   0.65390   0.49860   1.000
    C811    C    0.36700   0.84610   0.49860   1.000
    C812    C    0.38300   0.59610   0.74860   1.000
    C813    C    0.61700   0.40390   0.74860   1.000
    C814    C    0.63300   0.65390   0.99860   1.000
    C815    C    0.86700   0.84610   0.99860   1.000
    C816    C    0.13330   0.88840   0.72790   1.000
    C817    C    0.11670   0.13840   0.97790   1.000
    C818    C    0.38330   0.36160   0.97790   1.000
    C819    C    0.36670   0.11160   0.22790   1.000
    C820    C    0.63330   0.88840   0.22790   1.000
    C821    C    0.61670   0.13840   0.47790   1.000
    C822    C    0.88330   0.36160   0.47790   1.000
    C823    C    0.86670   0.61160   0.22790   1.000
    C824    C    0.13330   0.38840   0.22790   1.000
    C825    C    0.11670   0.63840   0.47790   1.000
    C826    C    0.38330   0.86160   0.47790   1.000
    C827    C    0.36670   0.61160   0.72790   1.000
    C828    C    0.63330   0.38840   0.72790   1.000
    C829    C    0.61670   0.63840   0.97790   1.000
    C830    C    0.88330   0.86160   0.97790   1.000
    C831    C    0.99810   0.78640   0.41900   1.000
    C832    C    0.25190   0.03640   0.66900   1.000
    C833    C    0.24810   0.46360   0.66900   1.000
    C834    C    0.50190   0.21360   0.91900   1.000
    C835    C    0.49810   0.78640   0.91900   1.000
    C836    C    0.75190   0.03640   0.16900   1.000
    C837    C    0.74810   0.46360   0.16900   1.000
    C838    C    0.00190   0.71360   0.91900   1.000
    C839    C    0.99810   0.28640   0.91900   1.000
    C840    C    0.25190   0.53640   0.16900   1.000
    C841    C    0.24810   0.96360   0.16900   1.000
    C842    C    0.50190   0.71360   0.41900   1.000
    C843    C    0.49810   0.28640   0.41900   1.000
    C844    C    0.75190   0.53640   0.66900   1.000
    C845    C    0.74810   0.96360   0.66900   1.000
    C846    C    0.09414   0.96810   0.47350   1.000
    C847    C    0.15586   0.21810   0.72350   1.000
    C848    C    0.34414   0.28190   0.72350   1.000
    C849    C    0.40586   0.03190   0.97350   1.000
    C850    C    0.59414   0.96810   0.97350   1.000
    C851    C    0.65586   0.21810   0.22350   1.000
    C852    C    0.84414   0.28190   0.22350   1.000
    C853    C    0.90586   0.53190   0.97350   1.000
    C854    C    0.09414   0.46810   0.97350   1.000
    C855    C    0.15586   0.71810   0.22350   1.000
    C856    C    0.34414   0.78190   0.22350   1.000
    C857    C    0.40586   0.53190   0.47350   1.000
    C858    C    0.59414   0.46810   0.47350   1.000
    C859    C    0.65586   0.71810   0.72350   1.000
    C860    C    0.84414   0.78190   0.72350   1.000
    C861    C    0.06841   0.94440   0.50170   1.000
    C862    C    0.18159   0.19440   0.75170   1.000
    C863    C    0.31841   0.30560   0.75170   1.000
    C864    C    0.43159   0.05560   0.00170   1.000
    C865    C    0.56841   0.94440   0.00170   1.000
    C866    C    0.68159   0.19440   0.25170   1.000
    C867    C    0.81841   0.30560   0.25170   1.000
    C868    C    0.93159   0.55560   0.00170   1.000
    C869    C    0.06841   0.44440   0.00170   1.000
    C870    C    0.18159   0.69440   0.25170   1.000
    C871    C    0.31841   0.80560   0.25170   1.000
    C872    C    0.43159   0.55560   0.50170   1.000
    C873    C    0.56841   0.44440   0.50170   1.000
    C874    C    0.68159   0.69440   0.75170   1.000
    C875    C    0.81841   0.80560   0.75170   1.000
    C876    C    0.08464   0.91170   0.53550   1.000
    C877    C    0.16536   0.16170   0.78550   1.000
    C878    C    0.33464   0.33830   0.78550   1.000
    C879    C    0.41536   0.08830   0.03550   1.000
    C880    C    0.58464   0.91170   0.03550   1.000
    C881    C    0.66536   0.16170   0.28550   1.000
    C882    C    0.83464   0.33830   0.28550   1.000
    C883    C    0.91536   0.58830   0.03550   1.000
    C884    C    0.08464   0.41170   0.03550   1.000
    C885    C    0.16536   0.66170   0.28550   1.000
    C886    C    0.33464   0.83830   0.28550   1.000
    C887    C    0.41536   0.58830   0.53550   1.000
    C888    C    0.58464   0.41170   0.53550   1.000
    C889    C    0.66536   0.66170   0.78550   1.000
    C890    C    0.83464   0.83830   0.78550   1.000
    C891    C    0.12039   0.91520   0.52810   1.000
    C892    C    0.12961   0.16520   0.77810   1.000
    C893    C    0.37039   0.33480   0.77810   1.000
    C894    C    0.37961   0.08480   0.02810   1.000
    C895    C    0.62039   0.91520   0.02810   1.000
    C896    C    0.62961   0.16520   0.27810   1.000
    C897    C    0.87039   0.33480   0.27810   1.000
    C898    C    0.87961   0.58480   0.02810   1.000
    C899    C    0.12039   0.41520   0.02810   1.000
    C900    C    0.12961   0.66520   0.27810   1.000
    C901    C    0.37039   0.83480   0.27810   1.000
    C902    C    0.37961   0.58480   0.52810   1.000
    C903    C    0.62039   0.41520   0.52810   1.000
    C904    C    0.62961   0.66520   0.77810   1.000
    C905    C    0.87039   0.83480   0.77810   1.000
    C906    C    0.13740   0.89730   0.54580   1.000
    C907    C    0.11260   0.14730   0.79580   1.000
    C908    C    0.38740   0.35270   0.79580   1.000
    C909    C    0.36260   0.10270   0.04580   1.000
    C910    C    0.63740   0.89730   0.04580   1.000
    C911    C    0.61260   0.14730   0.29580   1.000
    C912    C    0.88740   0.35270   0.29580   1.000
    C913    C    0.86260   0.60270   0.04580   1.000
    C914    C    0.13740   0.39730   0.04580   1.000
    C915    C    0.11260   0.64730   0.29580   1.000
    C916    C    0.38740   0.85270   0.29580   1.000
    C917    C    0.36260   0.60270   0.54580   1.000
    C918    C    0.63740   0.39730   0.54580   1.000
    C919    C    0.61260   0.64730   0.79580   1.000
    C920    C    0.88740   0.85270   0.79580   1.000
    C921    C    0.12626   0.95000   0.48980   1.000
    C922    C    0.12374   0.20000   0.73980   1.000
    C923    C    0.37626   0.30000   0.73980   1.000
    C924    C    0.37374   0.05000   0.98980   1.000
    C925    C    0.62626   0.95000   0.98980   1.000
    C926    C    0.62374   0.20000   0.23980   1.000
    C927    C    0.87626   0.30000   0.23980   1.000
    C928    C    0.87374   0.55000   0.98980   1.000
    C929    C    0.12626   0.45000   0.98980   1.000
    C930    C    0.12374   0.70000   0.23980   1.000
    C931    C    0.37626   0.80000   0.23980   1.000
    C932    C    0.37374   0.55000   0.48980   1.000
    C933    C    0.62626   0.45000   0.48980   1.000
    C934    C    0.62374   0.70000   0.73980   1.000
    C935    C    0.87626   0.80000   0.73980   1.000
    C936    C    0.09280   0.95190   0.80460   1.000
    C937    C    0.15720   0.20190   0.05460   1.000
    C938    C    0.34280   0.29810   0.05460   1.000
    C939    C    0.40720   0.04810   0.30460   1.000
    C940    C    0.59280   0.95190   0.30460   1.000
    C941    C    0.65720   0.20190   0.55460   1.000
    C942    C    0.84280   0.29810   0.55460   1.000
    C943    C    0.90720   0.54810   0.30460   1.000
    C944    C    0.09280   0.45190   0.30460   1.000
    C945    C    0.15720   0.70190   0.55460   1.000
    C946    C    0.34280   0.79810   0.55460   1.000
    C947    C    0.40720   0.54810   0.80460   1.000
    C948    C    0.59280   0.45190   0.80460   1.000
    C949    C    0.65720   0.70190   0.05460   1.000
    C950    C    0.84280   0.79810   0.05460   1.000
    C951    C    0.99880   0.77880   0.47170   1.000
    C952    C    0.25120   0.02880   0.72170   1.000
    C953    C    0.24880   0.47120   0.72170   1.000
    C954    C    0.50120   0.22120   0.97170   1.000
    C955    C    0.49880   0.77880   0.97170   1.000
    C956    C    0.75120   0.02880   0.22170   1.000
    C957    C    0.74880   0.47120   0.22170   1.000
    C958    C    0.00120   0.72120   0.97170   1.000
    C959    C    0.99880   0.27880   0.97170   1.000
    C960    C    0.25120   0.52880   0.22170   1.000
    C961    C    0.24880   0.97120   0.22170   1.000
    C962    C    0.50120   0.72120   0.47170   1.000
    C963    C    0.49880   0.27880   0.47170   1.000
    C964    C    0.75120   0.52880   0.72170   1.000
    C965    C    0.74880   0.97120   0.72170   1.000
    C966    C    0.87610   0.56950   0.77770   1.000
    C967    C    0.37390   0.81950   0.02770   1.000
    C968    C    0.12610   0.68050   0.02770   1.000
    C969    C    0.62390   0.43050   0.27770   1.000
    C970    C    0.37610   0.56950   0.27770   1.000
    C971    C    0.87390   0.81950   0.52770   1.000
    C972    C    0.62610   0.68050   0.52770   1.000
    C973    C    0.12390   0.93050   0.27770   1.000
    C974    C    0.87610   0.06950   0.27770   1.000
    C975    C    0.37390   0.31950   0.52770   1.000
    C976    C    0.12610   0.18050   0.52770   1.000
    C977    C    0.62390   0.93050   0.77770   1.000
    C978    C    0.37610   0.06950   0.77770   1.000
    C979    C    0.87390   0.31950   0.02770   1.000
    C980    C    0.62610   0.18050   0.02770   1.000
    C981    C    0.90510   0.54930   0.79150   1.000
    C982    C    0.34490   0.79930   0.04150   1.000
    C983    C    0.15510   0.70070   0.04150   1.000
    C984    C    0.59490   0.45070   0.29150   1.000
    C985    C    0.40510   0.54930   0.29150   1.000
    C986    C    0.84490   0.79930   0.54150   1.000
    C987    C    0.65510   0.70070   0.54150   1.000
    C988    C    0.09490   0.95070   0.29150   1.000
    C989    C    0.90510   0.04930   0.29150   1.000
    C990    C    0.34490   0.29930   0.54150   1.000
    C991    C    0.15510   0.20070   0.54150   1.000
    C992    C    0.59490   0.95070   0.79150   1.000
    C993    C    0.40510   0.04930   0.79150   1.000
    C994    C    0.84490   0.29930   0.04150   1.000
    C995    C    0.65510   0.20070   0.04150   1.000
    C996    C    0.88220   0.61430   0.50180   1.000
    C997    C    0.36780   0.86430   0.75180   1.000
    C998    C    0.13220   0.63570   0.75180   1.000
    C999    C    0.61780   0.38570   0.00180   1.000
    C1000   C    0.38220   0.61430   0.00180   1.000
    C1001   C    0.86780   0.86430   0.25180   1.000
    C1002   C    0.63220   0.63570   0.25180   1.000
    C1003   C    0.11780   0.88570   0.00180   1.000
    C1004   C    0.88220   0.11430   0.00180   1.000
    C1005   C    0.36780   0.36430   0.25180   1.000
    C1006   C    0.13220   0.13570   0.25180   1.000
    C1007   C    0.61780   0.88570   0.50180   1.000
    C1008   C    0.38220   0.11430   0.50180   1.000
    C1009   C    0.86780   0.36430   0.75180   1.000
    C1010   C    0.63220   0.13570   0.75180   1.000
    C1011   C    0.86570   0.63130   0.52100   1.000
    C1012   C    0.38430   0.88130   0.77100   1.000
    C1013   C    0.11570   0.61870   0.77100   1.000
    C1014   C    0.63430   0.36870   0.02100   1.000
    C1015   C    0.36570   0.63130   0.02100   1.000
    C1016   C    0.88430   0.88130   0.27100   1.000
    C1017   C    0.61570   0.61870   0.27100   1.000
    C1018   C    0.13430   0.86870   0.02100   1.000
    C1019   C    0.86570   0.13130   0.02100   1.000
    C1020   C    0.38430   0.38130   0.27100   1.000
    C1021   C    0.11570   0.11870   0.27100   1.000
    C1022   C    0.63430   0.86870   0.52100   1.000
    C1023   C    0.36570   0.13130   0.52100   1.000
    C1024   C    0.88430   0.38130   0.77100   1.000
    C1025   C    0.61570   0.11870   0.77100   1.000
    C1026   C    0.92820   0.57150   0.76420   1.000
    C1027   C    0.32180   0.82150   0.01420   1.000
    C1028   C    0.17820   0.67850   0.01420   1.000
    C1029   C    0.57180   0.42850   0.26420   1.000
    C1030   C    0.42820   0.57150   0.26420   1.000
    C1031   C    0.82180   0.82150   0.51420   1.000
    C1032   C    0.67820   0.67850   0.51420   1.000
    C1033   C    0.07180   0.92850   0.26420   1.000
    C1034   C    0.92820   0.07150   0.26420   1.000
    C1035   C    0.32180   0.32150   0.51420   1.000
    C1036   C    0.17820   0.17850   0.51420   1.000
    C1037   C    0.57180   0.92850   0.76420   1.000
    C1038   C    0.42820   0.07150   0.76420   1.000
    C1039   C    0.82180   0.32150   0.01420   1.000
    C1040   C    0.67820   0.17850   0.01420   1.000
    C1041   C    0.90750   0.56300   0.44950   1.000
    C1042   C    0.34250   0.81300   0.69950   1.000
    C1043   C    0.15750   0.68700   0.69950   1.000
    C1044   C    0.59250   0.43700   0.94950   1.000
    C1045   C    0.40750   0.56300   0.94950   1.000
    C1046   C    0.84250   0.81300   0.19950   1.000
    C1047   C    0.65750   0.68700   0.19950   1.000
    C1048   C    0.09250   0.93700   0.94950   1.000
    C1049   C    0.90750   0.06300   0.94950   1.000
    C1050   C    0.34250   0.31300   0.19950   1.000
    C1051   C    0.15750   0.18700   0.19950   1.000
    C1052   C    0.59250   0.93700   0.44950   1.000
    C1053   C    0.40750   0.06300   0.44950   1.000
    C1054   C    0.84250   0.31300   0.69950   1.000
    C1055   C    0.65750   0.18700   0.69950   1.000
    C1056   C    0.97460   0.73520   0.68120   1.000
    C1057   C    0.27540   0.98520   0.93120   1.000
    C1058   C    0.22460   0.51480   0.93120   1.000
    C1059   C    0.52540   0.26480   0.18120   1.000
    C1060   C    0.47460   0.73520   0.18120   1.000
    C1061   C    0.77540   0.98520   0.43120   1.000
    C1062   C    0.72460   0.51480   0.43120   1.000
    C1063   C    0.02540   0.76480   0.18120   1.000
    C1064   C    0.97460   0.23520   0.18120   1.000
    C1065   C    0.27540   0.48520   0.43120   1.000
    C1066   C    0.22460   0.01480   0.43120   1.000
    C1067   C    0.52540   0.76480   0.68120   1.000
    C1068   C    0.47460   0.23520   0.68120   1.000
    C1069   C    0.77540   0.48520   0.93120   1.000
    C1070   C    0.72460   0.01480   0.93120   1.000
    C1071   C    0.97492   0.74990   0.57660   1.000
    C1072   C    0.27508   0.99990   0.82660   1.000
    C1073   C    0.22492   0.50010   0.82660   1.000
    C1074   C    0.52508   0.25010   0.07660   1.000
    C1075   C    0.47492   0.74990   0.07660   1.000
    C1076   C    0.77508   0.99990   0.32660   1.000
    C1077   C    0.72492   0.50010   0.32660   1.000
    C1078   C    0.02508   0.75010   0.07660   1.000
    C1079   C    0.97492   0.24990   0.07660   1.000
    C1080   C    0.27508   0.49990   0.32660   1.000
    C1081   C    0.22492   0.00010   0.32660   1.000
    C1082   C    0.52508   0.75010   0.57660   1.000
    C1083   C    0.47492   0.24990   0.57660   1.000
    C1084   C    0.77508   0.49990   0.82660   1.000
    C1085   C    0.72492   0.00010   0.82660   1.000
    C1086   C    0.95263   0.81450   0.63710   1.000
    C1087   C    0.29737   0.06450   0.88710   1.000
    C1088   C    0.20263   0.43550   0.88710   1.000
    C1089   C    0.54737   0.18550   0.13710   1.000
    C1090   C    0.45263   0.81450   0.13710   1.000
    C1091   C    0.79737   0.06450   0.38710   1.000
    C1092   C    0.70263   0.43550   0.38710   1.000
    C1093   C    0.04737   0.68550   0.13710   1.000
    C1094   C    0.95263   0.31450   0.13710   1.000
    C1095   C    0.29737   0.56450   0.38710   1.000
    C1096   C    0.20263   0.93550   0.38710   1.000
    C1097   C    0.54737   0.68550   0.63710   1.000
    C1098   C    0.45263   0.31450   0.63710   1.000
    C1099   C    0.79737   0.56450   0.88710   1.000
    C1100   C    0.70263   0.93550   0.88710   1.000
    C1101   C    0.93270   0.83830   0.64000   1.000
    C1102   C    0.31730   0.08830   0.89000   1.000
    C1103   C    0.18270   0.41170   0.89000   1.000
    C1104   C    0.56730   0.16170   0.14000   1.000
    C1105   C    0.43270   0.83830   0.14000   1.000
    C1106   C    0.81730   0.08830   0.39000   1.000
    C1107   C    0.68270   0.41170   0.39000   1.000
    C1108   C    0.06730   0.66170   0.14000   1.000
    C1109   C    0.93270   0.33830   0.14000   1.000
    C1110   C    0.31730   0.58830   0.39000   1.000
    C1111   C    0.18270   0.91170   0.39000   1.000
    C1112   C    0.56730   0.66170   0.64000   1.000
    C1113   C    0.43270   0.33830   0.64000   1.000
    C1114   C    0.81730   0.58830   0.89000   1.000
    C1115   C    0.68270   0.91170   0.89000   1.000
    C1116   C    0.03427   0.77930   0.56150   1.000
    C1117   C    0.21573   0.02930   0.81150   1.000
    C1118   C    0.28427   0.47070   0.81150   1.000
    C1119   C    0.46573   0.22070   0.06150   1.000
    C1120   C    0.53427   0.77930   0.06150   1.000
    C1121   C    0.71573   0.02930   0.31150   1.000
    C1122   C    0.78427   0.47070   0.31150   1.000
    C1123   C    0.96573   0.72070   0.06150   1.000
    C1124   C    0.03427   0.27930   0.06150   1.000
    C1125   C    0.21573   0.52930   0.31150   1.000
    C1126   C    0.28427   0.97070   0.31150   1.000
    C1127   C    0.46573   0.72070   0.56150   1.000
    C1128   C    0.53427   0.27930   0.56150   1.000
    C1129   C    0.71573   0.52930   0.81150   1.000
    C1130   C    0.78427   0.97070   0.81150   1.000
    C1131   C    0.04860   0.78970   0.53340   1.000
    C1132   C    0.20140   0.03970   0.78340   1.000
    C1133   C    0.29860   0.46030   0.78340   1.000
    C1134   C    0.45140   0.21030   0.03340   1.000
    C1135   C    0.54860   0.78970   0.03340   1.000
    C1136   C    0.70140   0.03970   0.28340   1.000
    C1137   C    0.79860   0.46030   0.28340   1.000
    C1138   C    0.95140   0.71030   0.03340   1.000
    C1139   C    0.04860   0.28970   0.03340   1.000
    C1140   C    0.20140   0.53970   0.28340   1.000
    C1141   C    0.29860   0.96030   0.28340   1.000
    C1142   C    0.45140   0.71030   0.53340   1.000
    C1143   C    0.54860   0.28970   0.53340   1.000
    C1144   C    0.70140   0.53970   0.78340   1.000
    C1145   C    0.79860   0.96030   0.78340   1.000
    C1146   C    0.93800   0.65450   0.53430   1.000
    C1147   C    0.31200   0.90450   0.78430   1.000
    C1148   C    0.18800   0.59550   0.78430   1.000
    C1149   C    0.56200   0.34550   0.03430   1.000
    C1150   C    0.43800   0.65450   0.03430   1.000
    C1151   C    0.81200   0.90450   0.28430   1.000
    C1152   C    0.68800   0.59550   0.28430   1.000
    C1153   C    0.06200   0.84550   0.03430   1.000
    C1154   C    0.93800   0.15450   0.03430   1.000
    C1155   C    0.31200   0.40450   0.28430   1.000
    C1156   C    0.18800   0.09550   0.28430   1.000
    C1157   C    0.56200   0.84550   0.53430   1.000
    C1158   C    0.43800   0.15450   0.53430   1.000
    C1159   C    0.81200   0.40450   0.78430   1.000
    C1160   C    0.68800   0.09550   0.78430   1.000
    C1161   C    0.03156   0.88120   0.55800   1.000
    C1162   C    0.21844   0.13120   0.80800   1.000
    C1163   C    0.28156   0.36880   0.80800   1.000
    C1164   C    0.46844   0.11880   0.05800   1.000
    C1165   C    0.53156   0.88120   0.05800   1.000
    C1166   C    0.71844   0.13120   0.30800   1.000
    C1167   C    0.78156   0.36880   0.30800   1.000
    C1168   C    0.96844   0.61880   0.05800   1.000
    C1169   C    0.03156   0.38120   0.05800   1.000
    C1170   C    0.21844   0.63120   0.30800   1.000
    C1171   C    0.28156   0.86880   0.30800   1.000
    C1172   C    0.46844   0.61880   0.55800   1.000
    C1173   C    0.53156   0.38120   0.55800   1.000
    C1174   C    0.71844   0.63120   0.80800   1.000
    C1175   C    0.78156   0.86880   0.80800   1.000
    C1176   C    0.93260   0.58870   0.47150   1.000
    C1177   C    0.31740   0.83870   0.72150   1.000
    C1178   C    0.18260   0.66130   0.72150   1.000
    C1179   C    0.56740   0.41130   0.97150   1.000
    C1180   C    0.43260   0.58870   0.97150   1.000
    C1181   C    0.81740   0.83870   0.22150   1.000
    C1182   C    0.68260   0.66130   0.22150   1.000
    C1183   C    0.06740   0.91130   0.97150   1.000
    C1184   C    0.93260   0.08870   0.97150   1.000
    C1185   C    0.31740   0.33870   0.22150   1.000
    C1186   C    0.18260   0.16130   0.22150   1.000
    C1187   C    0.56740   0.91130   0.47150   1.000
    C1188   C    0.43260   0.08870   0.47150   1.000
    C1189   C    0.81740   0.33870   0.72150   1.000
    C1190   C    0.68260   0.16130   0.72150   1.000
    C1191   C    0.00390   0.75370   0.38030   1.000
    C1192   C    0.24610   0.00370   0.63030   1.000
    C1193   C    0.25390   0.49630   0.63030   1.000
    C1194   C    0.49610   0.24630   0.88030   1.000
    C1195   C    0.50390   0.75370   0.88030   1.000
    C1196   C    0.74610   0.00370   0.13030   1.000
    C1197   C    0.75390   0.49630   0.13030   1.000
    C1198   C    0.99610   0.74630   0.88030   1.000
    C1199   C    0.00390   0.25370   0.88030   1.000
    C1200   C    0.24610   0.50370   0.13030   1.000
    C1201   C    0.25390   0.99630   0.13030   1.000
    C1202   C    0.49610   0.74630   0.38030   1.000
    C1203   C    0.50390   0.25370   0.38030   1.000
    C1204   C    0.74610   0.50370   0.63030   1.000
    C1205   C    0.75390   0.99630   0.63030   1.000
    C1206   C    0.01010   0.71850   0.38150   1.000
    C1207   C    0.23990   0.96850   0.63150   1.000
    C1208   C    0.26010   0.53150   0.63150   1.000
    C1209   C    0.48990   0.28150   0.88150   1.000
    C1210   C    0.51010   0.71850   0.88150   1.000
    C1211   C    0.73990   0.96850   0.13150   1.000
    C1212   C    0.76010   0.53150   0.13150   1.000
    C1213   C    0.98990   0.78150   0.88150   1.000
    C1214   C    0.01010   0.21850   0.88150   1.000
    C1215   C    0.23990   0.46850   0.13150   1.000
    C1216   C    0.26010   0.03150   0.13150   1.000
    C1217   C    0.48990   0.78150   0.38150   1.000
    C1218   C    0.51010   0.21850   0.38150   1.000
    C1219   C    0.73990   0.46850   0.63150   1.000
    C1220   C    0.76010   0.03150   0.63150   1.000
    C1221   C    0.88060   0.60450   0.74070   1.000
    C1222   C    0.36940   0.85450   0.99070   1.000
    C1223   C    0.13060   0.64550   0.99070   1.000
    C1224   C    0.61940   0.39550   0.24070   1.000
    C1225   C    0.38060   0.60450   0.24070   1.000
    C1226   C    0.86940   0.85450   0.49070   1.000
    C1227   C    0.63060   0.64550   0.49070   1.000
    C1228   C    0.11940   0.89550   0.24070   1.000
    C1229   C    0.88060   0.10450   0.24070   1.000
    C1230   C    0.36940   0.35450   0.49070   1.000
    C1231   C    0.13060   0.14550   0.49070   1.000
    C1232   C    0.61940   0.89550   0.74070   1.000
    C1233   C    0.38060   0.10450   0.74070   1.000
    C1234   C    0.86940   0.35450   0.99070   1.000
    C1235   C    0.63060   0.14550   0.99070   1.000
    C1236   C    0.86370   0.62400   0.72440   1.000
    C1237   C    0.38630   0.87400   0.97440   1.000
    C1238   C    0.11370   0.62600   0.97440   1.000
    C1239   C    0.63630   0.37600   0.22440   1.000
    C1240   C    0.36370   0.62400   0.22440   1.000
    C1241   C    0.88630   0.87400   0.47440   1.000
    C1242   C    0.61370   0.62600   0.47440   1.000
    C1243   C    0.13630   0.87600   0.22440   1.000
    C1244   C    0.86370   0.12400   0.22440   1.000
    C1245   C    0.38630   0.37400   0.47440   1.000
    C1246   C    0.11370   0.12600   0.47440   1.000
    C1247   C    0.63630   0.87600   0.72440   1.000
    C1248   C    0.36370   0.12400   0.72440   1.000
    C1249   C    0.88630   0.37400   0.97440   1.000
    C1250   C    0.61370   0.12600   0.97440   1.000
    C1251   C    0.99040   0.83450   0.40180   1.000
    C1252   C    0.25960   0.08450   0.65180   1.000
    C1253   C    0.24040   0.41550   0.65180   1.000
    C1254   C    0.50960   0.16550   0.90180   1.000
    C1255   C    0.49040   0.83450   0.90180   1.000
    C1256   C    0.75960   0.08450   0.15180   1.000
    C1257   C    0.74040   0.41550   0.15180   1.000
    C1258   C    0.00960   0.66550   0.90180   1.000
    C1259   C    0.99040   0.33450   0.90180   1.000
    C1260   C    0.25960   0.58450   0.15180   1.000
    C1261   C    0.24040   0.91550   0.15180   1.000
    C1262   C    0.50960   0.66550   0.40180   1.000
    C1263   C    0.49040   0.33450   0.40180   1.000
    C1264   C    0.75960   0.58450   0.65180   1.000
    C1265   C    0.74040   0.91550   0.65180   1.000
    C1266   C    0.99080   0.83140   0.35400   1.000
    C1267   C    0.25920   0.08140   0.60400   1.000
    C1268   C    0.24080   0.41860   0.60400   1.000
    C1269   C    0.50920   0.16860   0.85400   1.000
    C1270   C    0.49080   0.83140   0.85400   1.000
    C1271   C    0.75920   0.08140   0.10400   1.000
    C1272   C    0.74080   0.41860   0.10400   1.000
    C1273   C    0.00920   0.66860   0.85400   1.000
    C1274   C    0.99080   0.33140   0.85400   1.000
    C1275   C    0.25920   0.58140   0.10400   1.000
    C1276   C    0.24080   0.91860   0.10400   1.000
    C1277   C    0.50920   0.66860   0.35400   1.000
    C1278   C    0.49080   0.33140   0.35400   1.000
    C1279   C    0.75920   0.58140   0.60400   1.000
    C1280   C    0.74080   0.91860   0.60400   1.000
    C1281   C    0.06850   0.92460   0.78400   1.000
    C1282   C    0.18150   0.17460   0.03400   1.000
    C1283   C    0.31850   0.32540   0.03400   1.000
    C1284   C    0.43150   0.07540   0.28400   1.000
    C1285   C    0.56850   0.92460   0.28400   1.000
    C1286   C    0.68150   0.17460   0.53400   1.000
    C1287   C    0.81850   0.32540   0.53400   1.000
    C1288   C    0.93150   0.57540   0.28400   1.000
    C1289   C    0.06850   0.42460   0.28400   1.000
    C1290   C    0.18150   0.67460   0.53400   1.000
    C1291   C    0.31850   0.82540   0.53400   1.000
    C1292   C    0.43150   0.57540   0.78400   1.000
    C1293   C    0.56850   0.42460   0.78400   1.000
    C1294   C    0.68150   0.67460   0.03400   1.000
    C1295   C    0.81850   0.82540   0.03400   1.000
    C1296   C    0.91710   0.62090   0.50350   1.000
    C1297   C    0.33290   0.87090   0.75350   1.000
    C1298   C    0.16710   0.62910   0.75350   1.000
    C1299   C    0.58290   0.37910   0.00350   1.000
    C1300   C    0.41710   0.62090   0.00350   1.000
    C1301   C    0.83290   0.87090   0.25350   1.000
    C1302   C    0.66710   0.62910   0.25350   1.000
    C1303   C    0.08290   0.87910   0.00350   1.000
    C1304   C    0.91710   0.12090   0.00350   1.000
    C1305   C    0.33290   0.37090   0.25350   1.000
    C1306   C    0.16710   0.12910   0.25350   1.000
    C1307   C    0.58290   0.87910   0.50350   1.000
    C1308   C    0.41710   0.12090   0.50350   1.000
    C1309   C    0.83290   0.37090   0.75350   1.000
    C1310   C    0.66710   0.12910   0.75350   1.000
    C1311   C    0.99890   0.78280   0.34060   1.000
    C1312   C    0.25110   0.03280   0.59060   1.000
    C1313   C    0.24890   0.46720   0.59060   1.000
    C1314   C    0.50110   0.21720   0.84060   1.000
    C1315   C    0.49890   0.78280   0.84060   1.000
    C1316   C    0.75110   0.03280   0.09060   1.000
    C1317   C    0.74890   0.46720   0.09060   1.000
    C1318   C    0.00110   0.71720   0.84060   1.000
    C1319   C    0.99890   0.28280   0.84060   1.000
    C1320   C    0.25110   0.53280   0.09060   1.000
    C1321   C    0.24890   0.96720   0.09060   1.000
    C1322   C    0.50110   0.71720   0.34060   1.000
    C1323   C    0.49890   0.28280   0.34060   1.000
    C1324   C    0.75110   0.53280   0.59060   1.000
    C1325   C    0.74890   0.96720   0.59060   1.000
    C1326   C    0.00010   0.77260   0.28830   1.000
    C1327   C    0.24990   0.02260   0.53830   1.000
    C1328   C    0.25010   0.47740   0.53830   1.000
    C1329   C    0.49990   0.22740   0.78830   1.000
    C1330   C    0.50010   0.77260   0.78830   1.000
    C1331   C    0.74990   0.02260   0.03830   1.000
    C1332   C    0.75010   0.47740   0.03830   1.000
    C1333   C    0.99990   0.72740   0.78830   1.000
    C1334   C    0.00010   0.27260   0.78830   1.000
    C1335   C    0.24990   0.52260   0.03830   1.000
    C1336   C    0.25010   0.97740   0.03830   1.000
    C1337   C    0.49990   0.72740   0.28830   1.000
    C1338   C    0.50010   0.27260   0.28830   1.000
    C1339   C    0.74990   0.52260   0.53830   1.000
    C1340   C    0.75010   0.97740   0.53830   1.000
    C1341   C    0.12230   0.93980   0.78320   1.000
    C1342   C    0.12770   0.18980   0.03320   1.000
    C1343   C    0.37230   0.31020   0.03320   1.000
    C1344   C    0.37770   0.06020   0.28320   1.000
    C1345   C    0.62230   0.93980   0.28320   1.000
    C1346   C    0.62770   0.18980   0.53320   1.000
    C1347   C    0.87230   0.31020   0.53320   1.000
    C1348   C    0.87770   0.56020   0.28320   1.000
    C1349   C    0.12230   0.43980   0.28320   1.000
    C1350   C    0.12770   0.68980   0.53320   1.000
    C1351   C    0.37230   0.81020   0.53320   1.000
    C1352   C    0.37770   0.56020   0.78320   1.000
    C1353   C    0.62230   0.43980   0.78320   1.000
    C1354   C    0.62770   0.68980   0.03320   1.000
    C1355   C    0.87230   0.81020   0.03320   1.000
    C1356   C    0.07090   0.80680   0.48150   1.000
    C1357   C    0.17910   0.05680   0.73150   1.000
    C1358   C    0.32090   0.44320   0.73150   1.000
    C1359   C    0.42910   0.19320   0.98150   1.000
    C1360   C    0.57090   0.80680   0.98150   1.000
    C1361   C    0.67910   0.05680   0.23150   1.000
    C1362   C    0.82090   0.44320   0.23150   1.000
    C1363   C    0.92910   0.69320   0.98150   1.000
    C1364   C    0.07090   0.30680   0.98150   1.000
    C1365   C    0.17910   0.55680   0.23150   1.000
    C1366   C    0.32090   0.94320   0.23150   1.000
    C1367   C    0.42910   0.69320   0.48150   1.000
    C1368   C    0.57090   0.30680   0.48150   1.000
    C1369   C    0.67910   0.55680   0.73150   1.000
    C1370   C    0.82090   0.94320   0.73150   1.000
    C1371   C    0.08800   0.80210   0.40500   1.000
    C1372   C    0.16200   0.05210   0.65500   1.000
    C1373   C    0.33800   0.44790   0.65500   1.000
    C1374   C    0.41200   0.19790   0.90500   1.000
    C1375   C    0.58800   0.80210   0.90500   1.000
    C1376   C    0.66200   0.05210   0.15500   1.000
    C1377   C    0.83800   0.44790   0.15500   1.000
    C1378   C    0.91200   0.69790   0.90500   1.000
    C1379   C    0.08800   0.30210   0.90500   1.000
    C1380   C    0.16200   0.55210   0.15500   1.000
    C1381   C    0.33800   0.94790   0.15500   1.000
    C1382   C    0.41200   0.69790   0.40500   1.000
    C1383   C    0.58800   0.30210   0.40500   1.000
    C1384   C    0.66200   0.55210   0.65500   1.000
    C1385   C    0.83800   0.94790   0.65500   1.000
    C1386   C    0.08130   0.78290   0.44850   1.000
    C1387   C    0.16870   0.03290   0.69850   1.000
    C1388   C    0.33130   0.46710   0.69850   1.000
    C1389   C    0.41870   0.21710   0.94850   1.000
    C1390   C    0.58130   0.78290   0.94850   1.000
    C1391   C    0.66870   0.03290   0.19850   1.000
    C1392   C    0.83130   0.46710   0.19850   1.000
    C1393   C    0.91870   0.71710   0.94850   1.000
    C1394   C    0.08130   0.28290   0.94850   1.000
    C1395   C    0.16870   0.53290   0.19850   1.000
    C1396   C    0.33130   0.96710   0.19850   1.000
    C1397   C    0.41870   0.71710   0.44850   1.000
    C1398   C    0.58130   0.28290   0.44850   1.000
    C1399   C    0.66870   0.53290   0.69850   1.000
    C1400   C    0.83130   0.96710   0.69850   1.000
    C1401   C    0.08520   0.74720   0.45330   1.000
    C1402   C    0.16480   0.99720   0.70330   1.000
    C1403   C    0.33520   0.50280   0.70330   1.000
    C1404   C    0.41480   0.25280   0.95330   1.000
    C1405   C    0.58520   0.74720   0.95330   1.000
    C1406   C    0.66480   0.99720   0.20330   1.000
    C1407   C    0.83520   0.50280   0.20330   1.000
    C1408   C    0.91480   0.75280   0.95330   1.000
    C1409   C    0.08520   0.24720   0.95330   1.000
    C1410   C    0.16480   0.49720   0.20330   1.000
    C1411   C    0.33520   0.00280   0.20330   1.000
    C1412   C    0.41480   0.75280   0.45330   1.000
    C1413   C    0.58520   0.24720   0.45330   1.000
    C1414   C    0.66480   0.49720   0.70330   1.000
    C1415   C    0.83520   0.00280   0.70330   1.000
    C1416   C    0.08440   0.85400   0.39310   1.000
    C1417   C    0.16560   0.10400   0.64310   1.000
    C1418   C    0.33440   0.39600   0.64310   1.000
    C1419   C    0.41560   0.14600   0.89310   1.000
    C1420   C    0.58440   0.85400   0.89310   1.000
    C1421   C    0.66560   0.10400   0.14310   1.000
    C1422   C    0.83440   0.39600   0.14310   1.000
    C1423   C    0.91560   0.64600   0.89310   1.000
    C1424   C    0.08440   0.35400   0.89310   1.000
    C1425   C    0.16560   0.60400   0.14310   1.000
    C1426   C    0.33440   0.89600   0.14310   1.000
    C1427   C    0.41560   0.64600   0.39310   1.000
    C1428   C    0.58440   0.35400   0.39310   1.000
    C1429   C    0.66560   0.60400   0.64310   1.000
    C1430   C    0.83440   0.89600   0.64310   1.000
    C1431   C    0.07680   0.87320   0.42140   1.000
    C1432   C    0.17320   0.12320   0.67140   1.000
    C1433   C    0.32680   0.37680   0.67140   1.000
    C1434   C    0.42320   0.12680   0.92140   1.000
    C1435   C    0.57680   0.87320   0.92140   1.000
    C1436   C    0.67320   0.12320   0.17140   1.000
    C1437   C    0.82680   0.37680   0.17140   1.000
    C1438   C    0.92320   0.62680   0.92140   1.000
    C1439   C    0.07680   0.37320   0.92140   1.000
    C1440   C    0.17320   0.62320   0.17140   1.000
    C1441   C    0.32680   0.87680   0.17140   1.000
    C1442   C    0.42320   0.62680   0.42140   1.000
    C1443   C    0.57680   0.37320   0.42140   1.000
    C1444   C    0.67320   0.62320   0.67140   1.000
    C1445   C    0.82680   0.87680   0.67140   1.000
    C1446   C    0.06760   0.85770   0.36740   1.000
    C1447   C    0.18240   0.10770   0.61740   1.000
    C1448   C    0.31760   0.39230   0.61740   1.000
    C1449   C    0.43240   0.14230   0.86740   1.000
    C1450   C    0.56760   0.85770   0.86740   1.000
    C1451   C    0.68240   0.10770   0.11740   1.000
    C1452   C    0.81760   0.39230   0.11740   1.000
    C1453   C    0.93240   0.64230   0.86740   1.000
    C1454   C    0.06760   0.35770   0.86740   1.000
    C1455   C    0.18240   0.60770   0.11740   1.000
    C1456   C    0.31760   0.89230   0.11740   1.000
    C1457   C    0.43240   0.64230   0.36740   1.000
    C1458   C    0.56760   0.35770   0.36740   1.000
    C1459   C    0.68240   0.60770   0.61740   1.000
    C1460   C    0.81760   0.89230   0.61740   1.000
    C1461   C    0.10640   0.86760   0.38230   1.000
    C1462   C    0.14360   0.11760   0.63230   1.000
    C1463   C    0.35640   0.38240   0.63230   1.000
    C1464   C    0.39360   0.13240   0.88230   1.000
    C1465   C    0.60640   0.86760   0.88230   1.000
    C1466   C    0.64360   0.11760   0.13230   1.000
    C1467   C    0.85640   0.38240   0.13230   1.000
    C1468   C    0.89360   0.63240   0.88230   1.000
    C1469   C    0.10640   0.36760   0.88230   1.000
    C1470   C    0.14360   0.61760   0.13230   1.000
    C1471   C    0.35640   0.88240   0.13230   1.000
    C1472   C    0.39360   0.63240   0.38230   1.000
    C1473   C    0.60640   0.36760   0.38230   1.000
    C1474   C    0.64360   0.61760   0.63230   1.000
    C1475   C    0.85640   0.88240   0.63230   1.000
    C1476   C    0.09670   0.76510   0.36330   1.000
    C1477   C    0.15330   0.01510   0.61330   1.000
    C1478   C    0.34670   0.48490   0.61330   1.000
    C1479   C    0.40330   0.23490   0.86330   1.000
    C1480   C    0.59670   0.76510   0.86330   1.000
    C1481   C    0.65330   0.01510   0.11330   1.000
    C1482   C    0.84670   0.48490   0.11330   1.000
    C1483   C    0.90330   0.73490   0.86330   1.000
    C1484   C    0.09670   0.26510   0.86330   1.000
    C1485   C    0.15330   0.51510   0.11330   1.000
    C1486   C    0.34670   0.98490   0.11330   1.000
    C1487   C    0.40330   0.73490   0.36330   1.000
    C1488   C    0.59670   0.26510   0.36330   1.000
    C1489   C    0.65330   0.51510   0.61330   1.000
    C1490   C    0.84670   0.98490   0.61330   1.000
    C1491   C    0.09730   0.72970   0.37520   1.000
    C1492   C    0.15270   0.97970   0.62520   1.000
    C1493   C    0.34730   0.52030   0.62520   1.000
    C1494   C    0.40270   0.27030   0.87520   1.000
    C1495   C    0.59730   0.72970   0.87520   1.000
    C1496   C    0.65270   0.97970   0.12520   1.000
    C1497   C    0.84730   0.52030   0.12520   1.000
    C1498   C    0.90270   0.77030   0.87520   1.000
    C1499   C    0.09730   0.22970   0.87520   1.000
    C1500   C    0.15270   0.47970   0.12520   1.000
    C1501   C    0.34730   0.02030   0.12520   1.000
    C1502   C    0.40270   0.77030   0.37520   1.000
    C1503   C    0.59730   0.22970   0.37520   1.000
    C1504   C    0.65270   0.47970   0.62520   1.000
    C1505   C    0.84730   0.02030   0.62520   1.000
    C1506   C    0.11910   0.77420   0.35000   1.000
    C1507   C    0.13090   0.02420   0.60000   1.000
    C1508   C    0.36910   0.47580   0.60000   1.000
    C1509   C    0.38090   0.22580   0.85000   1.000
    C1510   C    0.61910   0.77420   0.85000   1.000
    C1511   C    0.63090   0.02420   0.10000   1.000
    C1512   C    0.86910   0.47580   0.10000   1.000
    C1513   C    0.88090   0.72580   0.85000   1.000
    C1514   C    0.11910   0.27420   0.85000   1.000
    C1515   C    0.13090   0.52420   0.10000   1.000
    C1516   C    0.36910   0.97580   0.10000   1.000
    C1517   C    0.38090   0.72580   0.35000   1.000
    C1518   C    0.61910   0.27420   0.35000   1.000
    C1519   C    0.63090   0.52420   0.60000   1.000
    C1520   C    0.86910   0.97580   0.60000   1.000
    C1521   C    0.07940   0.76810   0.33810   1.000
    C1522   C    0.17060   0.01810   0.58810   1.000
    C1523   C    0.32940   0.48190   0.58810   1.000
    C1524   C    0.42060   0.23190   0.83810   1.000
    C1525   C    0.57940   0.76810   0.83810   1.000
    C1526   C    0.67060   0.01810   0.08810   1.000
    C1527   C    0.82940   0.48190   0.08810   1.000
    C1528   C    0.92060   0.73190   0.83810   1.000
    C1529   C    0.07940   0.26810   0.83810   1.000
    C1530   C    0.17060   0.51810   0.08810   1.000
    C1531   C    0.32940   0.98190   0.08810   1.000
    C1532   C    0.42060   0.73190   0.33810   1.000
    C1533   C    0.57940   0.26810   0.33810   1.000
    C1534   C    0.67060   0.51810   0.58810   1.000
    C1535   C    0.82940   0.98190   0.58810   1.000
    C1536   C    0.91560   0.90360   0.61410   1.000
    C1537   C    0.33440   0.15360   0.86410   1.000
    C1538   C    0.16560   0.34640   0.86410   1.000
    C1539   C    0.58440   0.09640   0.11410   1.000
    C1540   C    0.41560   0.90360   0.11410   1.000
    C1541   C    0.83440   0.15360   0.36410   1.000
    C1542   C    0.66560   0.34640   0.36410   1.000
    C1543   C    0.08440   0.59640   0.11410   1.000
    C1544   C    0.91560   0.40360   0.11410   1.000
    C1545   C    0.33440   0.65360   0.36410   1.000
    C1546   C    0.16560   0.84640   0.36410   1.000
    C1547   C    0.58440   0.59640   0.61410   1.000
    C1548   C    0.41560   0.40360   0.61410   1.000
    C1549   C    0.83440   0.65360   0.86410   1.000
    C1550   C    0.66560   0.84640   0.86410   1.000
    C1551   C    0.93940   0.92320   0.58750   1.000
    C1552   C    0.31060   0.17320   0.83750   1.000
    C1553   C    0.18940   0.32680   0.83750   1.000
    C1554   C    0.56060   0.07680   0.08750   1.000
    C1555   C    0.43940   0.92320   0.08750   1.000
    C1556   C    0.81060   0.17320   0.33750   1.000
    C1557   C    0.68940   0.32680   0.33750   1.000
    C1558   C    0.06060   0.57680   0.08750   1.000
    C1559   C    0.93940   0.42320   0.08750   1.000
    C1560   C    0.31060   0.67320   0.33750   1.000
    C1561   C    0.18940   0.82680   0.33750   1.000
    C1562   C    0.56060   0.57680   0.58750   1.000
    C1563   C    0.43940   0.42320   0.58750   1.000
    C1564   C    0.81060   0.67320   0.83750   1.000
    C1565   C    0.68940   0.82680   0.83750   1.000
    C1566   C    0.91670   0.89390   0.67770   1.000
    C1567   C    0.33330   0.14390   0.92770   1.000
    C1568   C    0.16670   0.35610   0.92770   1.000
    C1569   C    0.58330   0.10610   0.17770   1.000
    C1570   C    0.41670   0.89390   0.17770   1.000
    C1571   C    0.83330   0.14390   0.42770   1.000
    C1572   C    0.66670   0.35610   0.42770   1.000
    C1573   C    0.08330   0.60610   0.17770   1.000
    C1574   C    0.91670   0.39390   0.17770   1.000
    C1575   C    0.33330   0.64390   0.42770   1.000
    C1576   C    0.16670   0.85610   0.42770   1.000
    C1577   C    0.58330   0.60610   0.67770   1.000
    C1578   C    0.41670   0.39390   0.67770   1.000
    C1579   C    0.83330   0.64390   0.92770   1.000
    C1580   C    0.66670   0.85610   0.92770   1.000
    C1581   C    0.93870   0.90550   0.70990   1.000
    C1582   C    0.31130   0.15550   0.95990   1.000
    C1583   C    0.18870   0.34450   0.95990   1.000
    C1584   C    0.56130   0.09450   0.20990   1.000
    C1585   C    0.43870   0.90550   0.20990   1.000
    C1586   C    0.81130   0.15550   0.45990   1.000
    C1587   C    0.68870   0.34450   0.45990   1.000
    C1588   C    0.06130   0.59450   0.20990   1.000
    C1589   C    0.93870   0.40550   0.20990   1.000
    C1590   C    0.31130   0.65550   0.45990   1.000
    C1591   C    0.18870   0.84450   0.45990   1.000
    C1592   C    0.56130   0.59450   0.70990   1.000
    C1593   C    0.43870   0.40550   0.70990   1.000
    C1594   C    0.81130   0.65550   0.95990   1.000
    C1595   C    0.68870   0.84450   0.95990   1.000
    C1596   C    0.97980   0.56080   0.62740   1.000
    C1597   C    0.27020   0.81080   0.87740   1.000
    C1598   C    0.22980   0.68920   0.87740   1.000
    C1599   C    0.52020   0.43920   0.12740   1.000
    C1600   C    0.47980   0.56080   0.12740   1.000
    C1601   C    0.77020   0.81080   0.37740   1.000
    C1602   C    0.72980   0.68920   0.37740   1.000
    C1603   C    0.02020   0.93920   0.12740   1.000
    C1604   C    0.97980   0.06080   0.12740   1.000
    C1605   C    0.27020   0.31080   0.37740   1.000
    C1606   C    0.22980   0.18920   0.37740   1.000
    C1607   C    0.52020   0.93920   0.62740   1.000
    C1608   C    0.47980   0.06080   0.62740   1.000
    C1609   C    0.77020   0.31080   0.87740   1.000
    C1610   C    0.72980   0.18920   0.87740   1.000
    C1611   C    0.96350   0.97260   0.69200   1.000
    C1612   C    0.28650   0.22260   0.94200   1.000
    C1613   C    0.21350   0.27740   0.94200   1.000
    C1614   C    0.53650   0.02740   0.19200   1.000
    C1615   C    0.46350   0.97260   0.19200   1.000
    C1616   C    0.78650   0.22260   0.44200   1.000
    C1617   C    0.71350   0.27740   0.44200   1.000
    C1618   C    0.03650   0.52740   0.19200   1.000
    C1619   C    0.96350   0.47260   0.19200   1.000
    C1620   C    0.28650   0.72260   0.44200   1.000
    C1621   C    0.21350   0.77740   0.44200   1.000
    C1622   C    0.53650   0.52740   0.69200   1.000
    C1623   C    0.46350   0.47260   0.69200   1.000
    C1624   C    0.78650   0.72260   0.94200   1.000
    C1625   C    0.71350   0.77740   0.94200   1.000
    C1626   C    0.05060   0.58930   0.55840   1.000
    C1627   C    0.19940   0.83930   0.80840   1.000
    C1628   C    0.30060   0.66070   0.80840   1.000
    C1629   C    0.44940   0.41070   0.05840   1.000
    C1630   C    0.55060   0.58930   0.05840   1.000
    C1631   C    0.69940   0.83930   0.30840   1.000
    C1632   C    0.80060   0.66070   0.30840   1.000
    C1633   C    0.94940   0.91070   0.05840   1.000
    C1634   C    0.05060   0.08930   0.05840   1.000
    C1635   C    0.19940   0.33930   0.30840   1.000
    C1636   C    0.30060   0.16070   0.30840   1.000
    C1637   C    0.44940   0.91070   0.55840   1.000
    C1638   C    0.55060   0.08930   0.55840   1.000
    C1639   C    0.69940   0.33930   0.80840   1.000
    C1640   C    0.80060   0.16070   0.80840   1.000
    C1641   C    0.98050   0.92790   0.68880   1.000
    C1642   C    0.26950   0.17790   0.93880   1.000
    C1643   C    0.23050   0.32210   0.93880   1.000
    C1644   C    0.51950   0.07210   0.18880   1.000
    C1645   C    0.48050   0.92790   0.18880   1.000
    C1646   C    0.76950   0.17790   0.43880   1.000
    C1647   C    0.73050   0.32210   0.43880   1.000
    C1648   C    0.01950   0.57210   0.18880   1.000
    C1649   C    0.98050   0.42790   0.18880   1.000
    C1650   C    0.26950   0.67790   0.43880   1.000
    C1651   C    0.23050   0.82210   0.43880   1.000
    C1652   C    0.51950   0.57210   0.68880   1.000
    C1653   C    0.48050   0.42790   0.68880   1.000
    C1654   C    0.76950   0.67790   0.93880   1.000
    C1655   C    0.73050   0.82210   0.93880   1.000
    C1656   C    0.92810   0.97760   0.70900   1.000
    C1657   C    0.32190   0.22760   0.95900   1.000
    C1658   C    0.17810   0.27240   0.95900   1.000
    C1659   C    0.57190   0.02240   0.20900   1.000
    C1660   C    0.42810   0.97760   0.20900   1.000
    C1661   C    0.82190   0.22760   0.45900   1.000
    C1662   C    0.67810   0.27240   0.45900   1.000
    C1663   C    0.07190   0.52240   0.20900   1.000
    C1664   C    0.92810   0.47760   0.20900   1.000
    C1665   C    0.32190   0.72760   0.45900   1.000
    C1666   C    0.17810   0.77240   0.45900   1.000
    C1667   C    0.57190   0.52240   0.70900   1.000
    C1668   C    0.42810   0.47760   0.70900   1.000
    C1669   C    0.82190   0.72760   0.95900   1.000
    C1670   C    0.67810   0.77240   0.95900   1.000
    C1671   C    0.00810   0.56510   0.65410   1.000
    C1672   C    0.24190   0.81510   0.90410   1.000
    C1673   C    0.25810   0.68490   0.90410   1.000
    C1674   C    0.49190   0.43490   0.15410   1.000
    C1675   C    0.50810   0.56510   0.15410   1.000
    C1676   C    0.74190   0.81510   0.40410   1.000
    C1677   C    0.75810   0.68490   0.40410   1.000
    C1678   C    0.99190   0.93490   0.15410   1.000
    C1679   C    0.00810   0.06510   0.15410   1.000
    C1680   C    0.24190   0.31510   0.40410   1.000
    C1681   C    0.25810   0.18490   0.40410   1.000
    C1682   C    0.49190   0.93490   0.65410   1.000
    C1683   C    0.50810   0.06510   0.65410   1.000
    C1684   C    0.74190   0.31510   0.90410   1.000
    C1685   C    0.75810   0.18490   0.90410   1.000
    C1686   C    0.06540   0.55420   0.53580   1.000
    C1687   C    0.18460   0.80420   0.78580   1.000
    C1688   C    0.31540   0.69580   0.78580   1.000
    C1689   C    0.43460   0.44580   0.03580   1.000
    C1690   C    0.56540   0.55420   0.03580   1.000
    C1691   C    0.68460   0.80420   0.28580   1.000
    C1692   C    0.81540   0.69580   0.28580   1.000
    C1693   C    0.93460   0.94580   0.03580   1.000
    C1694   C    0.06540   0.05420   0.03580   1.000
    C1695   C    0.18460   0.30420   0.28580   1.000
    C1696   C    0.31540   0.19580   0.28580   1.000
    C1697   C    0.43460   0.94580   0.53580   1.000
    C1698   C    0.56540   0.05420   0.53580   1.000
    C1699   C    0.68460   0.30420   0.78580   1.000
    C1700   C    0.81540   0.19580   0.78580   1.000
    C1701   C    0.08370   0.01110   0.37820   1.000
    C1702   C    0.16630   0.26110   0.62820   1.000
    C1703   C    0.33370   0.23890   0.62820   1.000
    C1704   C    0.41630   0.98890   0.87820   1.000
    C1705   C    0.58370   0.01110   0.87820   1.000
    C1706   C    0.66630   0.26110   0.12820   1.000
    C1707   C    0.83370   0.23890   0.12820   1.000
    C1708   C    0.91630   0.48890   0.87820   1.000
    C1709   C    0.08370   0.51110   0.87820   1.000
    C1710   C    0.16630   0.76110   0.12820   1.000
    C1711   C    0.33370   0.73890   0.12820   1.000
    C1712   C    0.41630   0.48890   0.37820   1.000
    C1713   C    0.58370   0.51110   0.37820   1.000
    C1714   C    0.66630   0.76110   0.62820   1.000
    C1715   C    0.83370   0.73890   0.62820   1.000
    C1716   C    0.07080   0.01010   0.88270   1.000
    C1717   C    0.17920   0.26010   0.13270   1.000
    C1718   C    0.32080   0.23990   0.13270   1.000
    C1719   C    0.42920   0.98990   0.38270   1.000
    C1720   C    0.57080   0.01010   0.38270   1.000
    C1721   C    0.67920   0.26010   0.63270   1.000
    C1722   C    0.82080   0.23990   0.63270   1.000
    C1723   C    0.92920   0.48990   0.38270   1.000
    C1724   C    0.07080   0.51010   0.38270   1.000
    C1725   C    0.17920   0.76010   0.63270   1.000
    C1726   C    0.32080   0.73990   0.63270   1.000
    C1727   C    0.42920   0.48990   0.88270   1.000
    C1728   C    0.57080   0.51010   0.88270   1.000
    C1729   C    0.67920   0.76010   0.13270   1.000
    C1730   C    0.82080   0.73990   0.13270   1.000
    C1731   C    0.07350   0.76100   0.78340   1.000
    C1732   C    0.17650   0.01100   0.03340   1.000
    C1733   C    0.32350   0.48900   0.03340   1.000
    C1734   C    0.42650   0.23900   0.28340   1.000
    C1735   C    0.57350   0.76100   0.28340   1.000
    C1736   C    0.67650   0.01100   0.53340   1.000
    C1737   C    0.82350   0.48900   0.53340   1.000
    C1738   C    0.92650   0.73900   0.28340   1.000
    C1739   C    0.07350   0.26100   0.28340   1.000
    C1740   C    0.17650   0.51100   0.53340   1.000
    C1741   C    0.32350   0.98900   0.53340   1.000
    C1742   C    0.42650   0.73900   0.78340   1.000
    C1743   C    0.57350   0.26100   0.78340   1.000
    C1744   C    0.67650   0.51100   0.03340   1.000
    C1745   C    0.82350   0.98900   0.03340   1.000
    C1746   C    0.04730   0.99660   0.38050   1.000
    C1747   C    0.20270   0.24660   0.63050   1.000
    C1748   C    0.29730   0.25340   0.63050   1.000
    C1749   C    0.45270   0.00340   0.88050   1.000
    C1750   C    0.54730   0.99660   0.88050   1.000
    C1751   C    0.70270   0.24660   0.13050   1.000
    C1752   C    0.79730   0.25340   0.13050   1.000
    C1753   C    0.95270   0.50340   0.88050   1.000
    C1754   C    0.04730   0.49660   0.88050   1.000
    C1755   C    0.20270   0.74660   0.13050   1.000
    C1756   C    0.29730   0.75340   0.13050   1.000
    C1757   C    0.45270   0.50340   0.38050   1.000
    C1758   C    0.54730   0.49660   0.38050   1.000
    C1759   C    0.70270   0.74660   0.63050   1.000
    C1760   C    0.79730   0.75340   0.63050   1.000
    C1761   C    0.08900   0.06790   0.37480   1.000
    C1762   C    0.16100   0.31790   0.62480   1.000
    C1763   C    0.33900   0.18210   0.62480   1.000
    C1764   C    0.41100   0.93210   0.87480   1.000
    C1765   C    0.58900   0.06790   0.87480   1.000
    C1766   C    0.66100   0.31790   0.12480   1.000
    C1767   C    0.83900   0.18210   0.12480   1.000
    C1768   C    0.91100   0.43210   0.87480   1.000
    C1769   C    0.08900   0.56790   0.87480   1.000
    C1770   C    0.16100   0.81790   0.12480   1.000
    C1771   C    0.33900   0.68210   0.12480   1.000
    C1772   C    0.41100   0.43210   0.37480   1.000
    C1773   C    0.58900   0.56790   0.37480   1.000
    C1774   C    0.66100   0.81790   0.62480   1.000
    C1775   C    0.83900   0.68210   0.62480   1.000
    C1776   C    0.00110   0.93110   0.46400   1.000
    C1777   C    0.24890   0.18110   0.71400   1.000
    C1778   C    0.25110   0.31890   0.71400   1.000
    C1779   C    0.49890   0.06890   0.96400   1.000
    C1780   C    0.50110   0.93110   0.96400   1.000
    C1781   C    0.74890   0.18110   0.21400   1.000
    C1782   C    0.75110   0.31890   0.21400   1.000
    C1783   C    0.99890   0.56890   0.96400   1.000
    C1784   C    0.00110   0.43110   0.96400   1.000
    C1785   C    0.24890   0.68110   0.21400   1.000
    C1786   C    0.25110   0.81890   0.21400   1.000
    C1787   C    0.49890   0.56890   0.46400   1.000
    C1788   C    0.50110   0.43110   0.46400   1.000
    C1789   C    0.74890   0.68110   0.71400   1.000
    C1790   C    0.75110   0.81890   0.71400   1.000
    C1791   C    0.25000   0.25000   0.74470   1.000
    C1792   C    0.50000   0.00000   0.99470   1.000
    C1793   C    0.75000   0.25000   0.24470   1.000
    C1794   C    0.00000   0.50000   0.99470   1.000
    C1795   C    0.25000   0.75000   0.24470   1.000
    C1796   C    0.50000   0.50000   0.49470   1.000
    C1797   C    0.75000   0.75000   0.74470   1.000
    C1798   C    0.95540   0.90560   0.46380   1.000
    C1799   C    0.29460   0.15560   0.71380   1.000
    C1800   C    0.20540   0.34440   0.71380   1.000
    C1801   C    0.54460   0.09440   0.96380   1.000
    C1802   C    0.45540   0.90560   0.96380   1.000
    C1803   C    0.79460   0.15560   0.21380   1.000
    C1804   C    0.70540   0.34440   0.21380   1.000
    C1805   C    0.04460   0.59440   0.96380   1.000
    C1806   C    0.95540   0.40560   0.96380   1.000
    C1807   C    0.29460   0.65560   0.21380   1.000
    C1808   C    0.20540   0.84440   0.21380   1.000
    C1809   C    0.54460   0.59440   0.46380   1.000
    C1810   C    0.45540   0.40560   0.46380   1.000
    C1811   C    0.79460   0.65560   0.71380   1.000
    C1812   C    0.70540   0.84440   0.71380   1.000
    C1813   C    0.08500   0.76750   0.86340   1.000
    C1814   C    0.16500   0.01750   0.11340   1.000
    C1815   C    0.33500   0.48250   0.11340   1.000
    C1816   C    0.41500   0.23250   0.36340   1.000
    C1817   C    0.58500   0.76750   0.36340   1.000
    C1818   C    0.66500   0.01750   0.61340   1.000
    C1819   C    0.83500   0.48250   0.61340   1.000
    C1820   C    0.91500   0.73250   0.36340   1.000
    C1821   C    0.08500   0.26750   0.36340   1.000
    C1822   C    0.16500   0.51750   0.61340   1.000
    C1823   C    0.33500   0.98250   0.61340   1.000
    C1824   C    0.41500   0.73250   0.86340   1.000
    C1825   C    0.58500   0.26750   0.86340   1.000
    C1826   C    0.66500   0.51750   0.11340   1.000
    C1827   C    0.83500   0.98250   0.11340   1.000
    C1828   C    0.07030   0.77980   0.82010   1.000
    C1829   C    0.17970   0.02980   0.07010   1.000
    C1830   C    0.32030   0.47020   0.07010   1.000
    C1831   C    0.42970   0.22020   0.32010   1.000
    C1832   C    0.57030   0.77980   0.32010   1.000
    C1833   C    0.67970   0.02980   0.57010   1.000
    C1834   C    0.82030   0.47020   0.57010   1.000
    C1835   C    0.92970   0.72020   0.32010   1.000
    C1836   C    0.07030   0.27980   0.32010   1.000
    C1837   C    0.17970   0.52980   0.57010   1.000
    C1838   C    0.32030   0.97020   0.57010   1.000
    C1839   C    0.42970   0.72020   0.82010   1.000
    C1840   C    0.57030   0.27980   0.82010   1.000
    C1841   C    0.67970   0.52980   0.07010   1.000
    C1842   C    0.82030   0.97020   0.07010   1.000
    C1843   C    0.08510   0.80290   0.90880   1.000
    C1844   C    0.16490   0.05290   0.15880   1.000
    C1845   C    0.33510   0.44710   0.15880   1.000
    C1846   C    0.41490   0.19710   0.40880   1.000
    C1847   C    0.58510   0.80290   0.40880   1.000
    C1848   C    0.66490   0.05290   0.65880   1.000
    C1849   C    0.83510   0.44710   0.65880   1.000
    C1850   C    0.91490   0.69710   0.40880   1.000
    C1851   C    0.08510   0.30290   0.40880   1.000
    C1852   C    0.16490   0.55290   0.65880   1.000
    C1853   C    0.33510   0.94710   0.65880   1.000
    C1854   C    0.41490   0.69710   0.90880   1.000
    C1855   C    0.58510   0.30290   0.90880   1.000
    C1856   C    0.66490   0.55290   0.15880   1.000
    C1857   C    0.83510   0.94710   0.15880   1.000
    C1858   C    0.10240   0.71650   0.88700   1.000
    C1859   C    0.14760   0.96650   0.13700   1.000
    C1860   C    0.35240   0.53350   0.13700   1.000
    C1861   C    0.39760   0.28350   0.38700   1.000
    C1862   C    0.60240   0.71650   0.38700   1.000
    C1863   C    0.64760   0.96650   0.63700   1.000
    C1864   C    0.85240   0.53350   0.63700   1.000
    C1865   C    0.89760   0.78350   0.38700   1.000
    C1866   C    0.10240   0.21650   0.38700   1.000
    C1867   C    0.14760   0.46650   0.63700   1.000
    C1868   C    0.35240   0.03350   0.63700   1.000
    C1869   C    0.39760   0.78350   0.88700   1.000
    C1870   C    0.60240   0.21650   0.88700   1.000
    C1871   C    0.64760   0.46650   0.13700   1.000
    C1872   C    0.85240   0.03350   0.13700   1.000
    C1873   C    0.99940   0.57240   0.79830   1.000
    C1874   C    0.25060   0.82240   0.04830   1.000
    C1875   C    0.24940   0.67760   0.04830   1.000
    C1876   C    0.50060   0.42760   0.29830   1.000
    C1877   C    0.49940   0.57240   0.29830   1.000
    C1878   C    0.75060   0.82240   0.54830   1.000
    C1879   C    0.74940   0.67760   0.54830   1.000
    C1880   C    0.00060   0.92760   0.29830   1.000
    C1881   C    0.99940   0.07240   0.29830   1.000
    C1882   C    0.25060   0.32240   0.54830   1.000
    C1883   C    0.24940   0.17760   0.54830   1.000
    C1884   C    0.50060   0.92760   0.79830   1.000
    C1885   C    0.49940   0.07240   0.79830   1.000
    C1886   C    0.75060   0.32240   0.04830   1.000
    C1887   C    0.74940   0.17760   0.04830   1.000
    C1888   C    0.25000   0.75000   0.00900   1.000
    C1889   C    0.50000   0.50000   0.25900   1.000
    C1890   C    0.75000   0.75000   0.50900   1.000
    C1891   C    0.00000   0.00000   0.25900   1.000
    C1892   C    0.25000   0.25000   0.50900   1.000
    C1893   C    0.50000   0.00000   0.75900   1.000
    C1894   C    0.75000   0.25000   0.00900   1.000
    C1895   C    0.99980   0.61900   0.42900   1.000
    C1896   C    0.25020   0.86900   0.67900   1.000
    C1897   C    0.24980   0.63100   0.67900   1.000
    C1898   C    0.50020   0.38100   0.92900   1.000
    C1899   C    0.49980   0.61900   0.92900   1.000
    C1900   C    0.75020   0.86900   0.17900   1.000
    C1901   C    0.74980   0.63100   0.17900   1.000
    C1902   C    0.00020   0.88100   0.92900   1.000
    C1903   C    0.99980   0.11900   0.92900   1.000
    C1904   C    0.25020   0.36900   0.17900   1.000
    C1905   C    0.24980   0.13100   0.17900   1.000
    C1906   C    0.50020   0.88100   0.42900   1.000
    C1907   C    0.49980   0.11900   0.42900   1.000
    C1908   C    0.75020   0.36900   0.67900   1.000
    C1909   C    0.74980   0.13100   0.67900   1.000
    C1910   C    0.07400   0.59900   0.38800   1.000
    C1911   C    0.17600   0.84900   0.63800   1.000
    C1912   C    0.32400   0.65100   0.63800   1.000
    C1913   C    0.42600   0.40100   0.88800   1.000
    C1914   C    0.57400   0.59900   0.88800   1.000
    C1915   C    0.67600   0.84900   0.13800   1.000
    C1916   C    0.82400   0.65100   0.13800   1.000
    C1917   C    0.92600   0.90100   0.88800   1.000
    C1918   C    0.07400   0.09900   0.88800   1.000
    C1919   C    0.17600   0.34900   0.13800   1.000
    C1920   C    0.32400   0.15100   0.13800   1.000
    C1921   C    0.42600   0.90100   0.38800   1.000
    C1922   C    0.57400   0.09900   0.38800   1.000
    C1923   C    0.67600   0.34900   0.63800   1.000
    C1924   C    0.82400   0.15100   0.63800   1.000
    C1925   C    0.00100   0.59600   0.38800   1.000
    C1926   C    0.24900   0.84600   0.63800   1.000
    C1927   C    0.25100   0.65400   0.63800   1.000
    C1928   C    0.49900   0.40400   0.88800   1.000
    C1929   C    0.50100   0.59600   0.88800   1.000
    C1930   C    0.74900   0.84600   0.13800   1.000
    C1931   C    0.75100   0.65400   0.13800   1.000
    C1932   C    0.99900   0.90400   0.88800   1.000
    C1933   C    0.00100   0.09600   0.88800   1.000
    C1934   C    0.24900   0.34600   0.13800   1.000
    C1935   C    0.25100   0.15400   0.13800   1.000
    C1936   C    0.49900   0.90400   0.38800   1.000
    C1937   C    0.50100   0.09600   0.38800   1.000
    C1938   C    0.74900   0.34600   0.63800   1.000
    C1939   C    0.75100   0.15400   0.63800   1.000
    C1940   C    0.05100   0.60800   0.40100   1.000
    C1941   C    0.19900   0.85800   0.65100   1.000
    C1942   C    0.30100   0.64200   0.65100   1.000
    C1943   C    0.44900   0.39200   0.90100   1.000
    C1944   C    0.55100   0.60800   0.90100   1.000
    C1945   C    0.69900   0.85800   0.15100   1.000
    C1946   C    0.80100   0.64200   0.15100   1.000
    C1947   C    0.94900   0.89200   0.90100   1.000
    C1948   C    0.05100   0.10800   0.90100   1.000
    C1949   C    0.19900   0.35800   0.15100   1.000
    C1950   C    0.30100   0.14200   0.15100   1.000
    C1951   C    0.44900   0.89200   0.40100   1.000
    C1952   C    0.55100   0.10800   0.40100   1.000
    C1953   C    0.69900   0.35800   0.65100   1.000
    C1954   C    0.80100   0.14200   0.65100   1.000
    C1955   C    0.99730   0.95760   0.78090   1.000
    C1956   C    0.25270   0.20760   0.03090   1.000
    C1957   C    0.24730   0.29240   0.03090   1.000
    C1958   C    0.50270   0.04240   0.28090   1.000
    C1959   C    0.49730   0.95760   0.28090   1.000
    C1960   C    0.75270   0.20760   0.53090   1.000
    C1961   C    0.74730   0.29240   0.53090   1.000
    C1962   C    0.00270   0.54240   0.28090   1.000
    C1963   C    0.99730   0.45760   0.28090   1.000
    C1964   C    0.25270   0.70760   0.53090   1.000
    C1965   C    0.24730   0.79240   0.53090   1.000
    C1966   C    0.50270   0.54240   0.78090   1.000
    C1967   C    0.49730   0.45760   0.78090   1.000
    C1968   C    0.75270   0.70760   0.03090   1.000
    C1969   C    0.74730   0.79240   0.03090   1.000
    C1970   C    0.99940   0.54400   0.75900   1.000
    C1971   C    0.25060   0.79400   0.00900   1.000
    C1972   C    0.24940   0.70600   0.00900   1.000
    C1973   C    0.50060   0.45600   0.25900   1.000
    C1974   C    0.49940   0.54400   0.25900   1.000
    C1975   C    0.75060   0.79400   0.50900   1.000
    C1976   C    0.74940   0.70600   0.50900   1.000
    C1977   C    0.00060   0.95600   0.25900   1.000
    C1978   C    0.99940   0.04400   0.25900   1.000
    C1979   C    0.25060   0.29400   0.50900   1.000
    C1980   C    0.24940   0.20600   0.50900   1.000
    C1981   C    0.50060   0.95600   0.75900   1.000
    C1982   C    0.49940   0.04400   0.75900   1.000
    C1983   C    0.75060   0.29400   0.00900   1.000
    C1984   C    0.74940   0.20600   0.00900   1.000
    C1985   C    0.04270   0.59200   0.78800   1.000
    C1986   C    0.20730   0.84200   0.03800   1.000
    C1987   C    0.29270   0.65800   0.03800   1.000
    C1988   C    0.45730   0.40800   0.28800   1.000
    C1989   C    0.54270   0.59200   0.28800   1.000
    C1990   C    0.70730   0.84200   0.53800   1.000
    C1991   C    0.79270   0.65800   0.53800   1.000
    C1992   C    0.95730   0.90800   0.28800   1.000
    C1993   C    0.04270   0.09200   0.28800   1.000
    C1994   C    0.20730   0.34200   0.53800   1.000
    C1995   C    0.29270   0.15800   0.53800   1.000
    C1996   C    0.45730   0.90800   0.78800   1.000
    C1997   C    0.54270   0.09200   0.78800   1.000
    C1998   C    0.70730   0.34200   0.03800   1.000
    C1999   C    0.79270   0.15800   0.03800   1.000
    O2000   O    0.17465   0.15990   0.01725   1.000
    O2001   O    0.17805   0.12720   0.98545   1.000
    O2002   O    0.15040   0.14955   0.99955   1.000
    O2003   O    0.32535   0.34010   0.01725   1.000
    O2004   O    0.32195   0.37280   0.98545   1.000
    O2005   O    0.34960   0.35045   0.99955   1.000
    O2006   O    0.67465   0.65990   0.01725   1.000
    O2007   O    0.67805   0.62720   0.98545   1.000
    O2008   O    0.65040   0.64955   0.99955   1.000
    O2009   O    0.82535   0.84010   0.01725   1.000
    O2010   O    0.82195   0.87280   0.98545   1.000
    O2011   O    0.84960   0.85045   0.99955   1.000
    O2012   O    0.42348   0.07195   0.01860   1.000
    O2013   O    0.41873   0.04375   0.98760   1.000
    O2014   O    0.57653   0.92805   0.01860   1.000
    O2015   O    0.58127   0.95625   0.98760   1.000
    O2016   O    0.92347   0.57195   0.01860   1.000
    O2017   O    0.91873   0.54375   0.98760   1.000
    O2018   O    0.07653   0.42805   0.01860   1.000
    O2019   O    0.08128   0.45625   0.98760   1.000
    O2020   O    0.10035   0.88240   0.00265   1.000
    O2021   O    0.12605   0.87720   0.01140   1.000
    O2022   O    0.12080   0.90365   0.98430   1.000
    O2023   O    0.39965   0.61760   0.00265   1.000
    O2024   O    0.37395   0.62280   0.01140   1.000
    O2025   O    0.37920   0.59635   0.98430   1.000
    O2026   O    0.60035   0.38240   0.00265   1.000
    O2027   O    0.62605   0.37720   0.01140   1.000
    O2028   O    0.62080   0.40365   0.98430   1.000
    O2029   O    0.89965   0.11760   0.00265   1.000
    O2030   O    0.87395   0.12280   0.01140   1.000
    O2031   O    0.87920   0.09635   0.98430   1.000
    O2032   O    0.57245   0.36230   0.01890   1.000
    O2033   O    0.57515   0.39520   0.98750   1.000
    O2034   O    0.42755   0.63770   0.01890   1.000
    O2035   O    0.42485   0.60480   0.98750   1.000
    O2036   O    0.07245   0.86230   0.01890   1.000
    O2037   O    0.07515   0.89520   0.98750   1.000
    O2038   O    0.92755   0.13770   0.01890   1.000
    O2039   O    0.92485   0.10480   0.98750   1.000
    O2040   O    0.25030   0.77200   0.00900   1.000
    O2041   O    0.24970   0.72800   0.00900   1.000
    O2042   O    0.75030   0.27200   0.00900   1.000
    O2043   O    0.74970   0.22800   0.00900   1.000
    O2044   O    0.25060   0.80820   0.02865   1.000
    O2045   O    0.24940   0.69180   0.02865   1.000
    O2046   O    0.75060   0.30820   0.02865   1.000
    O2047   O    0.74940   0.19180   0.02865   1.000
    O2048   O    0.75455   0.04140   0.02490   1.000
    O2049   O    0.76128   0.06454   0.97284   1.000
    O2050   O    0.74546   0.45860   0.02490   1.000
    O2051   O    0.73872   0.43546   0.97284   1.000
    O2052   O    0.25455   0.54140   0.02490   1.000
    O2053   O    0.26128   0.56454   0.97284   1.000
    O2054   O    0.24546   0.95860   0.02490   1.000
    O2055   O    0.23873   0.93546   0.97284   1.000
    O2056   O    0.33335   0.81040   0.02785   1.000
    O2057   O    0.32860   0.83800   0.99885   1.000
    O2058   O    0.16665   0.68960   0.02785   1.000
    O2059   O    0.17140   0.66200   0.99885   1.000
    O2060   O    0.83335   0.31040   0.02785   1.000
    O2061   O    0.82860   0.33800   0.99885   1.000
    O2062   O    0.66665   0.18960   0.02785   1.000
    O2063   O    0.67140   0.16200   0.99885   1.000
    O2064   O    0.95349   0.15730   0.02885   1.000
    O2065   O    0.99104   0.17994   0.04115   1.000
    O2066   O    0.04651   0.84270   0.02885   1.000
    O2067   O    0.00896   0.82006   0.04115   1.000
    O2068   O    0.45349   0.65730   0.02885   1.000
    O2069   O    0.49104   0.67994   0.04115   1.000
    O2070   O    0.54651   0.34270   0.02885   1.000
    O2071   O    0.50896   0.32006   0.04115   1.000
    O2072   O    0.25420   0.00005   0.03155   1.000
    O2073   O    0.24580   0.49995   0.03155   1.000
    O2074   O    0.75420   0.50005   0.03155   1.000
    O2075   O    0.74580   0.99995   0.03155   1.000
    O2076   O    0.35940   0.80940   0.03460   1.000
    O2077   O    0.39000   0.81180   0.04030   1.000
    O2078   O    0.37165   0.83700   0.00920   1.000
    O2079   O    0.14060   0.69060   0.03460   1.000
    O2080   O    0.11000   0.68820   0.04030   1.000
    O2081   O    0.12835   0.66300   0.00920   1.000
    O2082   O    0.85940   0.30940   0.03460   1.000
    O2083   O    0.89000   0.31180   0.04030   1.000
    O2084   O    0.87165   0.33700   0.00920   1.000
    O2085   O    0.64060   0.19060   0.03460   1.000
    O2086   O    0.61000   0.18820   0.04030   1.000
    O2087   O    0.62835   0.16300   0.00920   1.000
    O2088   O    0.39748   0.08655   0.03180   1.000
    O2089   O    0.37111   0.09375   0.03695   1.000
    O2090   O    0.37667   0.06740   0.00895   1.000
    O2091   O    0.60252   0.91345   0.03180   1.000
    O2092   O    0.62890   0.90625   0.03695   1.000
    O2093   O    0.62333   0.93260   0.00895   1.000
    O2094   O    0.89749   0.58655   0.03180   1.000
    O2095   O    0.87111   0.59375   0.03695   1.000
    O2096   O    0.87668   0.56740   0.00895   1.000
    O2097   O    0.10252   0.41345   0.03180   1.000
    O2098   O    0.12889   0.40625   0.03695   1.000
    O2099   O    0.12333   0.43260   0.00895   1.000
    O2100   O    0.88850   0.79810   0.04220   1.000
    O2101   O    0.85755   0.80415   0.04390   1.000
    O2102   O    0.86965   0.82815   0.01590   1.000
    O2103   O    0.61150   0.70190   0.04220   1.000
    O2104   O    0.64245   0.69585   0.04390   1.000
    O2105   O    0.63035   0.67185   0.01590   1.000
    O2106   O    0.38850   0.29810   0.04220   1.000
    O2107   O    0.35755   0.30415   0.04390   1.000
    O2108   O    0.36965   0.32815   0.01590   1.000
    O2109   O    0.11150   0.20190   0.04220   1.000
    O2110   O    0.14245   0.19585   0.04390   1.000
    O2111   O    0.13035   0.17185   0.01590   1.000
    O2112   O    0.17810   0.02040   0.05175   1.000
    O2113   O    0.32190   0.47960   0.05175   1.000
    O2114   O    0.67810   0.52040   0.05175   1.000
    O2115   O    0.82190   0.97960   0.05175   1.000
    O2116   O    0.54144   0.78450   0.04745   1.000
    O2117   O    0.04143   0.28450   0.04745   1.000
    O2118   O    0.45857   0.21550   0.04745   1.000
    O2119   O    0.95856   0.71550   0.04745   1.000
    O2120   O    0.83065   0.81175   0.04430   1.000
    O2121   O    0.66935   0.68825   0.04430   1.000
    O2122   O    0.33065   0.31175   0.04430   1.000
    O2123   O    0.16935   0.18825   0.04430   1.000
    O2124   O    0.08158   0.20485   0.04275   1.000
    O2125   O    0.91842   0.79515   0.04275   1.000
    O2126   O    0.58158   0.70485   0.04275   1.000
    O2127   O    0.41842   0.29515   0.04275   1.000
    O2128   O    0.56975   0.33570   0.05220   1.000
    O2129   O    0.43025   0.66430   0.05220   1.000
    O2130   O    0.06975   0.83570   0.05220   1.000
    O2131   O    0.93025   0.16430   0.05220   1.000
    O2132   O    0.42613   0.10475   0.05030   1.000
    O2133   O    0.57387   0.89525   0.05030   1.000
    O2134   O    0.92613   0.60475   0.05030   1.000
    O2135   O    0.07387   0.39525   0.05030   1.000
    O2136   O    0.44200   0.42825   0.04710   1.000
    O2137   O    0.55800   0.57175   0.04710   1.000
    O2138   O    0.94200   0.92825   0.04710   1.000
    O2139   O    0.05800   0.07175   0.04710   1.000
    O2140   O    0.22895   0.83220   0.04315   1.000
    O2141   O    0.27105   0.66780   0.04315   1.000
    O2142   O    0.72895   0.33220   0.04315   1.000
    O2143   O    0.77105   0.16780   0.04315   1.000
    O2144   O    0.25050   0.52770   0.06445   1.000
    O2145   O    0.75050   0.02770   0.06445   1.000
    O2146   O    0.74950   0.47230   0.06445   1.000
    O2147   O    0.24950   0.97230   0.06445   1.000
    O2148   O    0.41965   0.81565   0.04785   1.000
    O2149   O    0.91965   0.31565   0.04785   1.000
    O2150   O    0.58035   0.18435   0.04785   1.000
    O2151   O    0.08035   0.68435   0.04785   1.000
    O2152   O    0.09679   0.23125   0.06695   1.000
    O2153   O    0.40321   0.26875   0.06695   1.000
    O2154   O    0.59680   0.73125   0.06695   1.000
    O2155   O    0.90321   0.76875   0.06695   1.000
    O2156   O    0.46125   0.39570   0.05485   1.000
    O2157   O    0.48000   0.34046   0.05510   1.000
    O2158   O    0.53875   0.60430   0.05485   1.000
    O2159   O    0.52000   0.65954   0.05510   1.000
    O2160   O    0.96125   0.89570   0.05485   1.000
    O2161   O    0.98000   0.84046   0.05510   1.000
    O2162   O    0.03875   0.10430   0.05485   1.000
    O2163   O    0.02000   0.15954   0.05510   1.000
    O2164   O    0.59567   0.21340   0.06865   1.000
    O2165   O    0.90434   0.28660   0.06865   1.000
    O2166   O    0.09566   0.71340   0.06865   1.000
    O2167   O    0.40434   0.78660   0.06865   1.000
    O2168   O    0.04733   0.38000   0.06155   1.000
    O2169   O    0.45267   0.12000   0.06155   1.000
    O2170   O    0.54733   0.88000   0.06155   1.000
    O2171   O    0.95267   0.62000   0.06155   1.000
    O2172   O    0.02369   0.23954   0.06020   1.000
    O2173   O    0.99401   0.22484   0.06775   1.000
    O2174   O    0.97631   0.76046   0.06020   1.000
    O2175   O    0.00599   0.77516   0.06775   1.000
    O2176   O    0.52369   0.73954   0.06020   1.000
    O2177   O    0.49401   0.72484   0.06775   1.000
    O2178   O    0.47631   0.26046   0.06020   1.000
    O2179   O    0.50599   0.27516   0.06775   1.000
    O2180   O    0.07086   0.36410   0.07940   1.000
    O2181   O    0.92914   0.63590   0.07940   1.000
    O2182   O    0.57086   0.86410   0.07940   1.000
    O2183   O    0.42914   0.13590   0.07940   1.000
    O2184   O    0.82765   0.97635   0.09175   1.000
    O2185   O    0.67235   0.52365   0.09175   1.000
    O2186   O    0.56858   0.29933   0.09839   1.000
    O2187   O    0.43143   0.70067   0.09839   1.000
    O2188   O    0.06858   0.79933   0.09839   1.000
    O2189   O    0.93143   0.20067   0.09839   1.000
    O2190   O    0.17235   0.02365   0.09175   1.000
    O2191   O    0.32765   0.47635   0.09175   1.000
    O2192   O    0.02186   0.63440   0.07824   1.000
    O2193   O    0.02985   0.67920   0.10599   1.000
    O2194   O    0.99871   0.67565   0.10664   1.000
    O2195   O    0.01048   0.67710   0.03574   1.000
    O2196   O    0.52186   0.13440   0.07824   1.000
    O2197   O    0.52985   0.17920   0.10599   1.000
    O2198   O    0.49871   0.17565   0.10664   1.000
    O2199   O    0.51049   0.17710   0.03574   1.000
    O2200   O    0.47814   0.86560   0.07824   1.000
    O2201   O    0.47015   0.82080   0.10599   1.000
    O2202   O    0.50130   0.82435   0.10664   1.000
    O2203   O    0.48951   0.82290   0.03574   1.000
    O2204   O    0.97814   0.36560   0.07824   1.000
    O2205   O    0.97016   0.32080   0.10599   1.000
    O2206   O    0.00130   0.32435   0.10664   1.000
    O2207   O    0.98952   0.32290   0.03574   1.000
    O2208   O    0.95764   0.23857   0.10164   1.000
    O2209   O    0.04236   0.76143   0.10164   1.000
    O2210   O    0.45764   0.73857   0.10164   1.000
    O2211   O    0.54237   0.26143   0.10164   1.000
    O2212   O    0.54600   0.08635   0.08455   1.000
    O2213   O    0.95400   0.41365   0.08455   1.000
    O2214   O    0.45400   0.91365   0.08455   1.000
    O2215   O    0.04600   0.58635   0.08455   1.000
    O2216   O    0.92073   0.73514   0.10797   1.000
    O2217   O    0.57928   0.76486   0.10797   1.000
    O2218   O    0.42073   0.23515   0.10797   1.000
    O2219   O    0.07927   0.26486   0.10797   1.000
    O2220   O    0.42146   0.74817   0.10554   1.000
    O2221   O    0.57854   0.25183   0.10554   1.000
    O2222   O    0.92146   0.24817   0.10554   1.000
    O2223   O    0.07854   0.75183   0.10554   1.000
    O2224   O    0.92750   0.41340   0.10080   1.000
    O2225   O    0.07250   0.58660   0.10080   1.000
    O2226   O    0.42750   0.91340   0.10080   1.000
    O2227   O    0.57250   0.08660   0.10080   1.000
    O2228   O    0.83805   0.48340   0.10070   1.000
    O2229   O    0.66195   0.01660   0.10070   1.000
    O2230   O    0.16195   0.51660   0.10070   1.000
    O2231   O    0.33805   0.98340   0.10070   1.000
    O2232   O    0.25515   0.55710   0.09730   1.000
    O2233   O    0.24860   0.51825   0.11045   1.000
    O2234   O    0.75515   0.05710   0.09730   1.000
    O2235   O    0.74860   0.01825   0.11045   1.000
    O2236   O    0.74485   0.44290   0.09730   1.000
    O2237   O    0.75140   0.48175   0.11045   1.000
    O2238   O    0.24485   0.94290   0.09730   1.000
    O2239   O    0.25140   0.98175   0.11045   1.000
    O2240   O    0.43056   0.18470   0.11347   1.000
    O2241   O    0.56944   0.81531   0.11347   1.000
    O2242   O    0.93056   0.68469   0.11347   1.000
    O2243   O    0.06944   0.31531   0.11347   1.000
    O2244   O    0.64210   0.01965   0.10665   1.000
    O2245   O    0.85790   0.48035   0.10665   1.000
    O2246   O    0.35790   0.98035   0.10665   1.000
    O2247   O    0.14210   0.51965   0.10665   1.000
    O2248   O    0.24060   0.91705   0.12790   1.000
    O2249   O    0.25940   0.58295   0.12790   1.000
    O2250   O    0.75940   0.08295   0.12790   1.000
    O2251   O    0.74060   0.41705   0.12790   1.000
    O2252   O    0.15300   0.49740   0.11925   1.000
    O2253   O    0.15765   0.53360   0.13415   1.000
    O2254   O    0.34700   0.00260   0.11925   1.000
    O2255   O    0.34235   0.96640   0.13415   1.000
    O2256   O    0.84700   0.50260   0.11925   1.000
    O2257   O    0.84235   0.46640   0.13415   1.000
    O2258   O    0.65300   0.99740   0.11925   1.000
    O2259   O    0.65765   0.03360   0.13415   1.000
    O2260   O    0.34370   0.50800   0.12520   1.000
    O2261   O    0.33505   0.46480   0.13610   1.000
    O2262   O    0.15630   0.99200   0.12520   1.000
    O2263   O    0.16495   0.03520   0.13610   1.000
    O2264   O    0.84370   0.00800   0.12520   1.000
    O2265   O    0.83505   0.96480   0.13610   1.000
    O2266   O    0.65630   0.49200   0.12520   1.000
    O2267   O    0.66495   0.53520   0.13610   1.000
    O2268   O    0.02145   0.85270   0.11640   1.000
    O2269   O    0.47856   0.64730   0.11640   1.000
    O2270   O    0.52145   0.35270   0.11640   1.000
    O2271   O    0.97856   0.14730   0.11640   1.000
    O2272   O    0.67400   0.10585   0.13025   1.000
    O2273   O    0.82600   0.39415   0.13025   1.000
    O2274   O    0.17400   0.60585   0.13025   1.000
    O2275   O    0.32600   0.89415   0.13025   1.000
    O2276   O    0.49794   0.67326   0.15144   1.000
    O2277   O    0.00207   0.82674   0.15144   1.000
    O2278   O    0.50206   0.32674   0.15144   1.000
    O2279   O    0.99794   0.17326   0.15144   1.000
    O2280   O    0.54904   0.74551   0.12872   1.000
    O2281   O    0.52559   0.69546   0.15419   1.000
    O2282   O    0.45096   0.25450   0.12872   1.000
    O2283   O    0.47441   0.30454   0.15419   1.000
    O2284   O    0.95096   0.75450   0.12872   1.000
    O2285   O    0.97441   0.80454   0.15419   1.000
    O2286   O    0.04904   0.24551   0.12872   1.000
    O2287   O    0.02559   0.19546   0.15419   1.000
    O2288   O    0.16365   0.78950   0.12650   1.000
    O2289   O    0.83635   0.21050   0.12650   1.000
    O2290   O    0.33635   0.71050   0.12650   1.000
    O2291   O    0.66365   0.28950   0.12650   1.000
    O2292   O    0.93093   0.19412   0.14739   1.000
    O2293   O    0.92159   0.24167   0.15309   1.000
    O2294   O    0.95748   0.23122   0.15394   1.000
    O2295   O    0.06907   0.80588   0.14739   1.000
    O2296   O    0.07841   0.75833   0.15309   1.000
    O2297   O    0.04252   0.76878   0.15394   1.000
    O2298   O    0.43093   0.69412   0.14739   1.000
    O2299   O    0.42159   0.74167   0.15309   1.000
    O2300   O    0.45747   0.73122   0.15394   1.000
    O2301   O    0.56907   0.30588   0.14739   1.000
    O2302   O    0.57842   0.25833   0.15309   1.000
    O2303   O    0.54253   0.26878   0.15394   1.000
    O2304   O    0.00605   0.93705   0.14075   1.000
    O2305   O    0.49395   0.56295   0.14075   1.000
    O2306   O    0.99395   0.06295   0.14075   1.000
    O2307   O    0.50605   0.43705   0.14075   1.000
    O2308   O    0.31550   0.74615   0.12935   1.000
    O2309   O    0.18450   0.75385   0.12935   1.000
    O2310   O    0.68450   0.25385   0.12935   1.000
    O2311   O    0.81550   0.24615   0.12935   1.000
    O2312   O    0.74300   0.98610   0.13090   1.000
    O2313   O    0.74900   0.02005   0.14965   1.000
    O2314   O    0.25700   0.01390   0.13090   1.000
    O2315   O    0.25100   0.97995   0.14965   1.000
    O2316   O    0.24300   0.48610   0.13090   1.000
    O2317   O    0.24900   0.52005   0.14965   1.000
    O2318   O    0.75700   0.51390   0.13090   1.000
    O2319   O    0.75100   0.47995   0.14965   1.000
    O2320   O    0.65460   0.11080   0.13770   1.000
    O2321   O    0.84540   0.38920   0.13770   1.000
    O2322   O    0.34540   0.88920   0.13770   1.000
    O2323   O    0.15460   0.61080   0.13770   1.000
    O2324   O    0.03758   0.30140   0.13582   1.000
    O2325   O    0.07904   0.25855   0.15417   1.000
    O2326   O    0.06891   0.30905   0.16037   1.000
    O2327   O    0.96242   0.69859   0.13582   1.000
    O2328   O    0.92096   0.74145   0.15417   1.000
    O2329   O    0.93109   0.69095   0.16037   1.000
    O2330   O    0.46242   0.19860   0.13582   1.000
    O2331   O    0.42096   0.24145   0.15417   1.000
    O2332   O    0.43109   0.19095   0.16037   1.000
    O2333   O    0.53759   0.80141   0.13582   1.000
    O2334   O    0.57904   0.75855   0.15417   1.000
    O2335   O    0.56891   0.80905   0.16037   1.000
    O2336   O    0.94266   0.32640   0.13855   1.000
    O2337   O    0.44267   0.82640   0.13855   1.000
    O2338   O    0.05734   0.67360   0.13855   1.000
    O2339   O    0.55734   0.17360   0.13855   1.000
    O2340   O    0.18750   0.35350   0.14450   1.000
    O2341   O    0.31250   0.14650   0.14450   1.000
    O2342   O    0.74960   0.85750   0.15850   1.000
    O2343   O    0.81250   0.64650   0.14450   1.000
    O2344   O    0.68750   0.85350   0.14450   1.000
    O2345   O    0.24960   0.35750   0.15850   1.000
    O2346   O    0.25040   0.14250   0.15850   1.000
    O2347   O    0.75040   0.64250   0.15850   1.000
    O2348   O    0.83620   0.42195   0.14905   1.000
    O2349   O    0.83060   0.38640   0.15725   1.000
    O2350   O    0.66380   0.07805   0.14905   1.000
    O2351   O    0.66940   0.11360   0.15725   1.000
    O2352   O    0.16380   0.57805   0.14905   1.000
    O2353   O    0.16940   0.61360   0.15725   1.000
    O2354   O    0.33620   0.92195   0.14905   1.000
    O2355   O    0.33060   0.88640   0.15725   1.000
    O2356   O    0.75575   0.06045   0.16040   1.000
    O2357   O    0.25575   0.56045   0.16040   1.000
    O2358   O    0.74425   0.43955   0.16040   1.000
    O2359   O    0.24425   0.93955   0.16040   1.000
    O2360   O    0.51735   0.58315   0.16345   1.000
    O2361   O    0.48265   0.41685   0.16345   1.000
    O2362   O    0.01735   0.08315   0.16345   1.000
    O2363   O    0.98265   0.91685   0.16345   1.000
    O2364   O    0.33465   0.95750   0.17675   1.000
    O2365   O    0.66535   0.04250   0.17675   1.000
    O2366   O    0.16535   0.54250   0.17675   1.000
    O2367   O    0.83465   0.45750   0.17675   1.000
    O2368   O    0.57090   0.35175   0.18450   1.000
    O2369   O    0.42911   0.64825   0.18450   1.000
    O2370   O    0.07090   0.85175   0.18450   1.000
    O2371   O    0.92911   0.14825   0.18450   1.000
    O2372   O    0.24845   0.96740   0.19535   1.000
    O2373   O    0.75155   0.03260   0.19535   1.000
    O2374   O    0.74845   0.46740   0.19535   1.000
    O2375   O    0.25155   0.53260   0.19535   1.000
    O2376   O    0.98002   0.85884   0.17849   1.000
    O2377   O    0.01998   0.14116   0.17849   1.000
    O2378   O    0.51998   0.64116   0.17849   1.000
    O2379   O    0.48002   0.35884   0.17849   1.000
    O2380   O    0.09626   0.21525   0.18680   1.000
    O2381   O    0.40374   0.28475   0.18680   1.000
    O2382   O    0.90374   0.78475   0.18680   1.000
    O2383   O    0.59626   0.71525   0.18680   1.000
    O2384   O    0.57230   0.10030   0.19380   1.000
    O2385   O    0.92770   0.39970   0.19380   1.000
    O2386   O    0.07230   0.60030   0.19380   1.000
    O2387   O    0.42770   0.89970   0.19380   1.000
    O2388   O    0.59539   0.22965   0.19760   1.000
    O2389   O    0.40461   0.77035   0.19760   1.000
    O2390   O    0.09539   0.72965   0.19760   1.000
    O2391   O    0.90461   0.27035   0.19760   1.000
    O2392   O    0.98104   0.27194   0.19111   1.000
    O2393   O    0.51897   0.22806   0.19111   1.000
    O2394   O    0.48103   0.77195   0.19111   1.000
    O2395   O    0.01897   0.72806   0.19111   1.000
    O2396   O    0.52372   0.72001   0.19299   1.000
    O2397   O    0.51128   0.68546   0.22284   1.000
    O2398   O    0.47629   0.27999   0.19299   1.000
    O2399   O    0.48873   0.31454   0.22284   1.000
    O2400   O    0.97628   0.77999   0.19299   1.000
    O2401   O    0.98872   0.81454   0.22284   1.000
    O2402   O    0.02372   0.22001   0.19299   1.000
    O2403   O    0.01128   0.18546   0.22284   1.000
    O2404   O    0.43037   0.15195   0.20395   1.000
    O2405   O    0.56963   0.84805   0.20395   1.000
    O2406   O    0.93037   0.65195   0.20395   1.000
    O2407   O    0.06963   0.34805   0.20395   1.000
    O2408   O    0.47200   0.95025   0.19040   1.000
    O2409   O    0.47462   0.90755   0.19855   1.000
    O2410   O    0.52800   0.04975   0.19040   1.000
    O2411   O    0.52538   0.09245   0.19855   1.000
    O2412   O    0.97200   0.45025   0.19040   1.000
    O2413   O    0.97462   0.40755   0.19855   1.000
    O2414   O    0.02800   0.54975   0.19040   1.000
    O2415   O    0.02538   0.59245   0.19855   1.000
    O2416   O    0.44580   0.97510   0.20050   1.000
    O2417   O    0.05420   0.52490   0.20050   1.000
    O2418   O    0.55420   0.02490   0.20050   1.000
    O2419   O    0.94580   0.47510   0.20050   1.000
    O2420   O    0.58116   0.68215   0.20295   1.000
    O2421   O    0.61045   0.68310   0.20765   1.000
    O2422   O    0.16675   0.51505   0.20090   1.000
    O2423   O    0.17390   0.54485   0.21500   1.000
    O2424   O    0.83325   0.48495   0.20090   1.000
    O2425   O    0.82610   0.45515   0.21500   1.000
    O2426   O    0.66675   0.01505   0.20090   1.000
    O2427   O    0.67390   0.04485   0.21500   1.000
    O2428   O    0.08116   0.18215   0.20295   1.000
    O2429   O    0.11045   0.18310   0.20765   1.000
    O2430   O    0.41884   0.31785   0.20295   1.000
    O2431   O    0.38955   0.31690   0.20765   1.000
    O2432   O    0.91884   0.81785   0.20295   1.000
    O2433   O    0.88955   0.81690   0.20765   1.000
    O2434   O    0.33325   0.98495   0.20090   1.000
    O2435   O    0.32610   0.95515   0.21500   1.000
    O2436   O    0.14185   0.17930   0.20815   1.000
    O2437   O    0.17005   0.17415   0.21050   1.000
    O2438   O    0.35815   0.32070   0.20815   1.000
    O2439   O    0.32995   0.32585   0.21050   1.000
    O2440   O    0.85815   0.82070   0.20815   1.000
    O2441   O    0.82995   0.82585   0.21050   1.000
    O2442   O    0.64185   0.67930   0.20815   1.000
    O2443   O    0.67005   0.67415   0.21050   1.000
    O2444   O    0.54781   0.36515   0.20545   1.000
    O2445   O    0.57435   0.38000   0.21720   1.000
    O2446   O    0.45219   0.63485   0.20545   1.000
    O2447   O    0.42565   0.62000   0.21720   1.000
    O2448   O    0.95219   0.13485   0.20545   1.000
    O2449   O    0.92565   0.12000   0.21720   1.000
    O2450   O    0.04781   0.86515   0.20545   1.000
    O2451   O    0.07435   0.88000   0.21720   1.000
    O2452   O    0.50902   0.83235   0.21596   1.000
    O2453   O    0.00901   0.33235   0.21596   1.000
    O2454   O    0.99099   0.66765   0.21596   1.000
    O2455   O    0.49099   0.16765   0.21596   1.000
    O2456   O    0.45881   0.24005   0.21660   1.000
    O2457   O    0.54119   0.75995   0.21660   1.000
    O2458   O    0.95882   0.74005   0.21660   1.000
    O2459   O    0.04119   0.25995   0.21660   1.000
    O2460   O    0.95372   0.39635   0.20910   1.000
    O2461   O    0.45372   0.89635   0.20910   1.000
    O2462   O    0.54628   0.10365   0.20910   1.000
    O2463   O    0.04628   0.60365   0.20910   1.000
    O2464   O    0.27175   0.66835   0.21390   1.000
    O2465   O    0.72825   0.33165   0.21390   1.000
    O2466   O    0.22825   0.83165   0.21390   1.000
    O2467   O    0.77175   0.16835   0.21390   1.000
    O2468   O    0.92002   0.29375   0.22400   1.000
    O2469   O    0.89133   0.29230   0.22775   1.000
    O2470   O    0.42001   0.79375   0.22400   1.000
    O2471   O    0.39133   0.79230   0.22775   1.000
    O2472   O    0.07998   0.70625   0.22400   1.000
    O2473   O    0.10867   0.70770   0.22775   1.000
    O2474   O    0.57999   0.20625   0.22400   1.000
    O2475   O    0.60867   0.20770   0.22775   1.000
    O2476   O    0.87080   0.84635   0.23430   1.000
    O2477   O    0.12920   0.15365   0.23430   1.000
    O2478   O    0.62920   0.65365   0.23430   1.000
    O2479   O    0.37080   0.34635   0.23430   1.000
    O2480   O    0.54613   0.85760   0.22565   1.000
    O2481   O    0.57195   0.87720   0.23545   1.000
    O2482   O    0.04613   0.35760   0.22565   1.000
    O2483   O    0.07195   0.37720   0.23545   1.000
    O2484   O    0.45387   0.14240   0.22565   1.000
    O2485   O    0.42805   0.12280   0.23545   1.000
    O2486   O    0.95387   0.64240   0.22565   1.000
    O2487   O    0.92805   0.62280   0.23545   1.000
    O2488   O    0.17485   0.14520   0.23750   1.000
    O2489   O    0.32515   0.35480   0.23750   1.000
    O2490   O    0.67485   0.64520   0.23750   1.000
    O2491   O    0.82515   0.85480   0.23750   1.000
    O2492   O    0.25320   0.99400   0.22820   1.000
    O2493   O    0.24508   0.95125   0.23415   1.000
    O2494   O    0.75320   0.49400   0.22820   1.000
    O2495   O    0.74508   0.45125   0.23415   1.000
    O2496   O    0.74680   0.00600   0.22820   1.000
    O2497   O    0.75493   0.04875   0.23415   1.000
    O2498   O    0.24680   0.50600   0.22820   1.000
    O2499   O    0.25493   0.54875   0.23415   1.000
    O2500   O    0.63980   0.20905   0.23165   1.000
    O2501   O    0.66873   0.20625   0.23760   1.000
    O2502   O    0.86020   0.29095   0.23165   1.000
    O2503   O    0.83128   0.29375   0.23760   1.000
    O2504   O    0.13980   0.70905   0.23165   1.000
    O2505   O    0.16873   0.70625   0.23760   1.000
    O2506   O    0.36020   0.79095   0.23165   1.000
    O2507   O    0.33127   0.79375   0.23760   1.000
    O2508   O    0.87215   0.11425   0.23255   1.000
    O2509   O    0.37215   0.61425   0.23255   1.000
    O2510   O    0.62785   0.38575   0.23255   1.000
    O2511   O    0.12785   0.88575   0.23255   1.000
    O2512   O    0.37485   0.10385   0.23825   1.000
    O2513   O    0.62515   0.89615   0.23825   1.000
    O2514   O    0.12515   0.39615   0.23825   1.000
    O2515   O    0.87485   0.60385   0.23825   1.000
    O2516   O    0.89760   0.10450   0.23710   1.000
    O2517   O    0.92140   0.08800   0.24885   1.000
    O2518   O    0.10240   0.89550   0.23710   1.000
    O2519   O    0.07860   0.91200   0.24885   1.000
    O2520   O    0.39760   0.60450   0.23710   1.000
    O2521   O    0.42140   0.58800   0.24885   1.000
    O2522   O    0.60240   0.39550   0.23710   1.000
    O2523   O    0.57860   0.41200   0.24885   1.000
    O2524   O    0.62667   0.18260   0.25895   1.000
    O2525   O    0.37333   0.81740   0.25895   1.000
    O2526   O    0.12668   0.68260   0.25895   1.000
    O2527   O    0.87333   0.31740   0.25895   1.000
    O2528   O    0.12165   0.91300   0.25920   1.000
    O2529   O    0.87835   0.08700   0.25920   1.000
    O2530   O    0.37835   0.58700   0.25920   1.000
    O2531   O    0.62165   0.41300   0.25920   1.000
    O2532   O    0.73952   0.42710   0.28574   1.000
    O2533   O    0.26049   0.57290   0.28574   1.000
    O2534   O    0.23952   0.92710   0.28574   1.000
    O2535   O    0.76048   0.07290   0.28574   1.000
    O2536   O    0.40040   0.10045   0.24955   1.000
    O2537   O    0.38035   0.07815   0.26590   1.000
    O2538   O    0.59960   0.89955   0.24955   1.000
    O2539   O    0.61965   0.92185   0.26590   1.000
    O2540   O    0.90040   0.60045   0.24955   1.000
    O2541   O    0.88035   0.57815   0.26590   1.000
    O2542   O    0.09960   0.39955   0.24955   1.000
    O2543   O    0.11965   0.42185   0.26590   1.000
    O2544   O    0.92465   0.59010   0.26725   1.000
    O2545   O    0.42465   0.09010   0.26725   1.000
    O2546   O    0.57535   0.90990   0.26725   1.000
    O2547   O    0.07535   0.40990   0.26725   1.000
    O2548   O    0.67348   0.17805   0.26860   1.000
    O2549   O    0.82653   0.32195   0.26860   1.000
    O2550   O    0.17347   0.67805   0.26860   1.000
    O2551   O    0.32653   0.82195   0.26860   1.000
    O2552   O    0.85035   0.86760   0.25265   1.000
    O2553   O    0.87605   0.87280   0.26140   1.000
    O2554   O    0.64965   0.63240   0.25265   1.000
    O2555   O    0.62395   0.62720   0.26140   1.000
    O2556   O    0.35035   0.36760   0.25265   1.000
    O2557   O    0.37605   0.37280   0.26140   1.000
    O2558   O    0.14965   0.13240   0.25265   1.000
    O2559   O    0.12395   0.12720   0.26140   1.000
    O2560   O    0.32245   0.38770   0.26890   1.000
    O2561   O    0.67755   0.61230   0.26890   1.000
    O2562   O    0.82245   0.88770   0.26890   1.000
    O2563   O    0.17755   0.11230   0.26890   1.000
    O2564   O    0.49970   0.52200   0.25900   1.000
    O2565   O    0.49940   0.55820   0.27865   1.000
    O2566   O    0.50030   0.47800   0.25900   1.000
    O2567   O    0.00030   0.97800   0.25900   1.000
    O2568   O    0.00060   0.94180   0.27865   1.000
    O2569   O    0.99970   0.02200   0.25900   1.000
    O2570   O    0.99940   0.05820   0.27865   1.000
    O2571   O    0.50060   0.44180   0.27865   1.000
    O2572   O    0.00454   0.20860   0.27490   1.000
    O2573   O    0.49545   0.29140   0.27490   1.000
    O2574   O    0.50455   0.70860   0.27490   1.000
    O2575   O    0.99546   0.79140   0.27490   1.000
    O2576   O    0.58335   0.43960   0.27785   1.000
    O2577   O    0.91665   0.06040   0.27785   1.000
    O2578   O    0.08335   0.93960   0.27785   1.000
    O2579   O    0.41665   0.56040   0.27785   1.000
    O2580   O    0.29651   0.40730   0.27885   1.000
    O2581   O    0.25896   0.42994   0.29115   1.000
    O2582   O    0.70349   0.59270   0.27885   1.000
    O2583   O    0.74104   0.57006   0.29115   1.000
    O2584   O    0.79651   0.90730   0.27885   1.000
    O2585   O    0.75896   0.92994   0.29115   1.000
    O2586   O    0.20349   0.09270   0.27885   1.000
    O2587   O    0.24104   0.07006   0.29115   1.000
    O2588   O    0.99580   0.25005   0.28155   1.000
    O2589   O    0.00420   0.74995   0.28155   1.000
    O2590   O    0.49580   0.75005   0.28155   1.000
    O2591   O    0.50420   0.24995   0.28155   1.000
    O2592   O    0.60940   0.44060   0.28460   1.000
    O2593   O    0.64000   0.43820   0.29030   1.000
    O2594   O    0.39060   0.55940   0.28460   1.000
    O2595   O    0.36000   0.56180   0.29030   1.000
    O2596   O    0.89060   0.05940   0.28460   1.000
    O2597   O    0.86000   0.06180   0.29030   1.000
    O2598   O    0.10940   0.94060   0.28460   1.000
    O2599   O    0.14000   0.93820   0.29030   1.000
    O2600   O    0.35252   0.83655   0.28180   1.000
    O2601   O    0.37889   0.84375   0.28695   1.000
    O2602   O    0.14749   0.66345   0.28180   1.000
    O2603   O    0.12111   0.65625   0.28695   1.000
    O2604   O    0.85252   0.33655   0.28180   1.000
    O2605   O    0.87890   0.34375   0.28695   1.000
    O2606   O    0.64749   0.16345   0.28180   1.000
    O2607   O    0.62111   0.15625   0.28695   1.000
    O2608   O    0.13850   0.45190   0.29220   1.000
    O2609   O    0.10755   0.44585   0.29390   1.000
    O2610   O    0.86150   0.54810   0.29220   1.000
    O2611   O    0.89245   0.55415   0.29390   1.000
    O2612   O    0.63850   0.95190   0.29220   1.000
    O2613   O    0.60755   0.94585   0.29390   1.000
    O2614   O    0.36150   0.04810   0.29220   1.000
    O2615   O    0.39245   0.05415   0.29390   1.000
    O2616   O    0.92810   0.72960   0.30175   1.000
    O2617   O    0.57190   0.77040   0.30175   1.000
    O2618   O    0.42810   0.22960   0.30175   1.000
    O2619   O    0.07190   0.27040   0.30175   1.000
    O2620   O    0.70857   0.03450   0.29745   1.000
    O2621   O    0.79143   0.46550   0.29745   1.000
    O2622   O    0.20857   0.53450   0.29745   1.000
    O2623   O    0.29144   0.96550   0.29745   1.000
    O2624   O    0.91935   0.56175   0.29430   1.000
    O2625   O    0.08065   0.43825   0.29430   1.000
    O2626   O    0.41935   0.06175   0.29430   1.000
    O2627   O    0.58065   0.93825   0.29430   1.000
    O2628   O    0.31975   0.41430   0.30220   1.000
    O2629   O    0.81975   0.91430   0.30220   1.000
    O2630   O    0.68025   0.58570   0.30220   1.000
    O2631   O    0.18025   0.08570   0.30220   1.000
    O2632   O    0.33158   0.04515   0.29275   1.000
    O2633   O    0.66842   0.95485   0.29275   1.000
    O2634   O    0.83158   0.54515   0.29275   1.000
    O2635   O    0.16842   0.45485   0.29275   1.000
    O2636   O    0.82387   0.35475   0.30030   1.000
    O2637   O    0.32387   0.85475   0.30030   1.000
    O2638   O    0.17613   0.64525   0.30030   1.000
    O2639   O    0.67613   0.14525   0.30030   1.000
    O2640   O    0.69200   0.82175   0.29710   1.000
    O2641   O    0.80800   0.67825   0.29710   1.000
    O2642   O    0.19200   0.32175   0.29710   1.000
    O2643   O    0.30800   0.17825   0.29710   1.000
    O2644   O    0.97895   0.91780   0.29315   1.000
    O2645   O    0.47895   0.41780   0.29315   1.000
    O2646   O    0.52105   0.58220   0.29315   1.000
    O2647   O    0.02105   0.08220   0.29315   1.000
    O2648   O    0.00050   0.22230   0.31445   1.000
    O2649   O    0.99950   0.77770   0.31445   1.000
    O2650   O    0.50050   0.72230   0.31445   1.000
    O2651   O    0.49950   0.27770   0.31445   1.000
    O2652   O    0.33035   0.56565   0.29785   1.000
    O2653   O    0.66965   0.43435   0.29785   1.000
    O2654   O    0.16965   0.93435   0.29785   1.000
    O2655   O    0.83035   0.06565   0.29785   1.000
    O2656   O    0.84680   0.51875   0.31695   1.000
    O2657   O    0.65321   0.98125   0.31695   1.000
    O2658   O    0.34680   0.01875   0.31695   1.000
    O2659   O    0.15321   0.48125   0.31695   1.000
    O2660   O    0.78875   0.64570   0.30485   1.000
    O2661   O    0.77000   0.59046   0.30510   1.000
    O2662   O    0.71125   0.85430   0.30485   1.000
    O2663   O    0.73000   0.90954   0.30510   1.000
    O2664   O    0.21125   0.35430   0.30485   1.000
    O2665   O    0.23000   0.40954   0.30510   1.000
    O2666   O    0.28875   0.14570   0.30485   1.000
    O2667   O    0.27000   0.09046   0.30510   1.000
    O2668   O    0.65434   0.46340   0.31865   1.000
    O2669   O    0.15434   0.96340   0.31865   1.000
    O2670   O    0.34567   0.53660   0.31865   1.000
    O2671   O    0.84566   0.03660   0.31865   1.000
    O2672   O    0.20267   0.63000   0.31155   1.000
    O2673   O    0.29733   0.87000   0.31155   1.000
    O2674   O    0.79733   0.37000   0.31155   1.000
    O2675   O    0.70267   0.13000   0.31155   1.000
    O2676   O    0.72631   0.98954   0.31020   1.000
    O2677   O    0.75599   0.97484   0.31775   1.000
    O2678   O    0.77369   0.51046   0.31020   1.000
    O2679   O    0.74401   0.52516   0.31775   1.000
    O2680   O    0.22631   0.48954   0.31020   1.000
    O2681   O    0.25599   0.47484   0.31775   1.000
    O2682   O    0.27369   0.01046   0.31020   1.000
    O2683   O    0.24401   0.02516   0.31775   1.000
    O2684   O    0.82086   0.38590   0.32940   1.000
    O2685   O    0.32086   0.88590   0.32940   1.000
    O2686   O    0.17914   0.61410   0.32940   1.000
    O2687   O    0.67914   0.11410   0.32940   1.000
    O2688   O    0.07765   0.27365   0.34175   1.000
    O2689   O    0.92235   0.72635   0.34175   1.000
    O2690   O    0.57765   0.77365   0.34175   1.000
    O2691   O    0.42235   0.22635   0.34175   1.000
    O2692   O    0.18143   0.04933   0.34839   1.000
    O2693   O    0.31858   0.45067   0.34839   1.000
    O2694   O    0.68143   0.54933   0.34839   1.000
    O2695   O    0.81858   0.95067   0.34839   1.000
    O2696   O    0.27186   0.61560   0.32824   1.000
    O2697   O    0.27985   0.57080   0.35599   1.000
    O2698   O    0.24871   0.57435   0.35664   1.000
    O2699   O    0.22814   0.88440   0.32824   1.000
    O2700   O    0.22015   0.92920   0.35599   1.000
    O2701   O    0.25129   0.92565   0.35664   1.000
    O2702   O    0.72814   0.38440   0.32824   1.000
    O2703   O    0.72015   0.42920   0.35599   1.000
    O2704   O    0.75129   0.42565   0.35664   1.000
    O2705   O    0.77186   0.11560   0.32824   1.000
    O2706   O    0.77985   0.07080   0.35599   1.000
    O2707   O    0.74871   0.07435   0.35664   1.000
    O2708   O    0.20764   0.01143   0.35164   1.000
    O2709   O    0.79236   0.98857   0.35164   1.000
    O2710   O    0.70764   0.51143   0.35164   1.000
    O2711   O    0.29236   0.48857   0.35164   1.000
    O2712   O    0.20400   0.83635   0.33455   1.000
    O2713   O    0.29600   0.66365   0.33455   1.000
    O2714   O    0.70400   0.33635   0.33455   1.000
    O2715   O    0.79600   0.16365   0.33455   1.000
    O2716   O    0.82927   0.48515   0.35797   1.000
    O2717   O    0.17073   0.51485   0.35797   1.000
    O2718   O    0.67073   0.01486   0.35797   1.000
    O2719   O    0.32927   0.98515   0.35797   1.000
    O2720   O    0.67146   0.50183   0.35554   1.000
    O2721   O    0.32854   0.49817   0.35554   1.000
    O2722   O    0.17146   0.00183   0.35554   1.000
    O2723   O    0.82854   0.99817   0.35554   1.000
    O2724   O    0.32250   0.66340   0.35080   1.000
    O2725   O    0.17750   0.83660   0.35080   1.000
    O2726   O    0.67750   0.33660   0.35080   1.000
    O2727   O    0.82250   0.16340   0.35080   1.000
    O2728   O    0.91195   0.23340   0.35070   1.000
    O2729   O    0.08805   0.76660   0.35070   1.000
    O2730   O    0.58805   0.26660   0.35070   1.000
    O2731   O    0.41195   0.73340   0.35070   1.000
    O2732   O    0.00515   0.19290   0.34730   1.000
    O2733   O    0.99860   0.23175   0.36045   1.000
    O2734   O    0.99485   0.80710   0.34730   1.000
    O2735   O    0.00140   0.76825   0.36045   1.000
    O2736   O    0.49485   0.30710   0.34730   1.000
    O2737   O    0.50140   0.26825   0.36045   1.000
    O2738   O    0.50515   0.69290   0.34730   1.000
    O2739   O    0.49860   0.73175   0.36045   1.000
    O2740   O    0.31944   0.93470   0.36347   1.000
    O2741   O    0.18056   0.56530   0.36347   1.000
    O2742   O    0.68056   0.06530   0.36347   1.000
    O2743   O    0.81944   0.43470   0.36347   1.000
    O2744   O    0.39210   0.73035   0.35665   1.000
    O2745   O    0.60790   0.26965   0.35665   1.000
    O2746   O    0.10790   0.76965   0.35665   1.000
    O2747   O    0.89210   0.23035   0.35665   1.000
    O2748   O    0.00940   0.16705   0.37790   1.000
    O2749   O    0.99060   0.83295   0.37790   1.000
    O2750   O    0.50940   0.66705   0.37790   1.000
    O2751   O    0.49060   0.33295   0.37790   1.000
    O2752   O    0.90300   0.25260   0.36925   1.000
    O2753   O    0.90765   0.21640   0.38415   1.000
    O2754   O    0.40300   0.75260   0.36925   1.000
    O2755   O    0.40765   0.71640   0.38415   1.000
    O2756   O    0.59700   0.24740   0.36925   1.000
    O2757   O    0.59235   0.28360   0.38415   1.000
    O2758   O    0.09700   0.74740   0.36925   1.000
    O2759   O    0.09235   0.78360   0.38415   1.000
    O2760   O    0.90630   0.75800   0.37520   1.000
    O2761   O    0.91495   0.71480   0.38610   1.000
    O2762   O    0.40630   0.25800   0.37520   1.000
    O2763   O    0.41495   0.21480   0.38610   1.000
    O2764   O    0.59370   0.74200   0.37520   1.000
    O2765   O    0.58505   0.78520   0.38610   1.000
    O2766   O    0.09370   0.24200   0.37520   1.000
    O2767   O    0.08505   0.28520   0.38610   1.000
    O2768   O    0.77145   0.89730   0.36640   1.000
    O2769   O    0.27144   0.39730   0.36640   1.000
    O2770   O    0.22855   0.10270   0.36640   1.000
    O2771   O    0.72856   0.60270   0.36640   1.000
    O2772   O    0.92400   0.14415   0.38025   1.000
    O2773   O    0.07600   0.85585   0.38025   1.000
    O2774   O    0.42400   0.64415   0.38025   1.000
    O2775   O    0.57600   0.35585   0.38025   1.000
    O2776   O    0.74794   0.57674   0.40144   1.000
    O2777   O    0.75206   0.92326   0.40144   1.000
    O2778   O    0.24794   0.07674   0.40144   1.000
    O2779   O    0.25206   0.42326   0.40144   1.000
    O2780   O    0.20096   0.49551   0.37872   1.000
    O2781   O    0.22441   0.44546   0.40419   1.000
    O2782   O    0.79904   0.50450   0.37872   1.000
    O2783   O    0.77559   0.55454   0.40419   1.000
    O2784   O    0.70096   0.99551   0.37872   1.000
    O2785   O    0.72441   0.94546   0.40419   1.000
    O2786   O    0.29904   0.00450   0.37872   1.000
    O2787   O    0.27559   0.05454   0.40419   1.000
    O2788   O    0.91365   0.96050   0.37650   1.000
    O2789   O    0.08635   0.03950   0.37650   1.000
    O2790   O    0.41365   0.46050   0.37650   1.000
    O2791   O    0.58635   0.53950   0.37650   1.000
    O2792   O    0.68093   0.55588   0.39739   1.000
    O2793   O    0.67159   0.50833   0.40309   1.000
    O2794   O    0.70748   0.51878   0.40394   1.000
    O2795   O    0.31907   0.44412   0.39739   1.000
    O2796   O    0.32841   0.49167   0.40309   1.000
    O2797   O    0.29253   0.48122   0.40394   1.000
    O2798   O    0.81907   0.94412   0.39739   1.000
    O2799   O    0.82842   0.99167   0.40309   1.000
    O2800   O    0.79253   0.98122   0.40394   1.000
    O2801   O    0.18093   0.05588   0.39739   1.000
    O2802   O    0.17159   0.00833   0.40309   1.000
    O2803   O    0.20747   0.01878   0.40394   1.000
    O2804   O    0.24395   0.18705   0.39075   1.000
    O2805   O    0.74395   0.68705   0.39075   1.000
    O2806   O    0.25605   0.31295   0.39075   1.000
    O2807   O    0.75605   0.81295   0.39075   1.000
    O2808   O    0.93450   0.99615   0.37935   1.000
    O2809   O    0.56550   0.50385   0.37935   1.000
    O2810   O    0.06550   0.00385   0.37935   1.000
    O2811   O    0.43450   0.49615   0.37935   1.000
    O2812   O    0.99300   0.26390   0.38090   1.000
    O2813   O    0.99900   0.22995   0.39965   1.000
    O2814   O    0.00700   0.73610   0.38090   1.000
    O2815   O    0.00100   0.77005   0.39965   1.000
    O2816   O    0.50700   0.23610   0.38090   1.000
    O2817   O    0.50100   0.27005   0.39965   1.000
    O2818   O    0.49300   0.76390   0.38090   1.000
    O2819   O    0.49900   0.72995   0.39965   1.000
    O2820   O    0.90460   0.13920   0.38770   1.000
    O2821   O    0.59540   0.36080   0.38770   1.000
    O2822   O    0.40460   0.63920   0.38770   1.000
    O2823   O    0.09540   0.86080   0.38770   1.000
    O2824   O    0.28759   0.94859   0.38582   1.000
    O2825   O    0.32904   0.99145   0.40417   1.000
    O2826   O    0.31891   0.94095   0.41037   1.000
    O2827   O    0.21241   0.55141   0.38582   1.000
    O2828   O    0.17096   0.50856   0.40417   1.000
    O2829   O    0.18109   0.55905   0.41037   1.000
    O2830   O    0.78758   0.44860   0.38582   1.000
    O2831   O    0.82904   0.49145   0.40417   1.000
    O2832   O    0.81891   0.44095   0.41037   1.000
    O2833   O    0.71242   0.05140   0.38582   1.000
    O2834   O    0.67096   0.00855   0.40417   1.000
    O2835   O    0.68109   0.05905   0.41037   1.000
    O2836   O    0.19267   0.92360   0.38855   1.000
    O2837   O    0.30734   0.57640   0.38855   1.000
    O2838   O    0.69267   0.42360   0.38855   1.000
    O2839   O    0.80734   0.07640   0.38855   1.000
    O2840   O    0.99960   0.39250   0.40850   1.000
    O2841   O    0.93750   0.39650   0.39450   1.000
    O2842   O    0.50040   0.10750   0.40850   1.000
    O2843   O    0.43750   0.89650   0.39450   1.000
    O2844   O    0.06250   0.60350   0.39450   1.000
    O2845   O    0.56250   0.10350   0.39450   1.000
    O2846   O    0.00040   0.60750   0.40850   1.000
    O2847   O    0.49960   0.89250   0.40850   1.000
    O2848   O    0.91380   0.17195   0.39905   1.000
    O2849   O    0.91940   0.13640   0.40725   1.000
    O2850   O    0.41380   0.67195   0.39905   1.000
    O2851   O    0.41940   0.63640   0.40725   1.000
    O2852   O    0.08620   0.82805   0.39905   1.000
    O2853   O    0.08060   0.86360   0.40725   1.000
    O2854   O    0.58620   0.32805   0.39905   1.000
    O2855   O    0.58060   0.36360   0.40725   1.000
    O2856   O    0.00575   0.18955   0.41040   1.000
    O2857   O    0.49425   0.31045   0.41040   1.000
    O2858   O    0.99425   0.81045   0.41040   1.000
    O2859   O    0.50575   0.68955   0.41040   1.000
    O2860   O    0.26735   0.16685   0.41345   1.000
    O2861   O    0.73265   0.83315   0.41345   1.000
    O2862   O    0.76735   0.66685   0.41345   1.000
    O2863   O    0.23265   0.33315   0.41345   1.000
    O2864   O    0.91535   0.20750   0.42675   1.000
    O2865   O    0.41535   0.70750   0.42675   1.000
    O2866   O    0.58465   0.29250   0.42675   1.000
    O2867   O    0.08465   0.79250   0.42675   1.000
    O2868   O    0.32089   0.39825   0.43450   1.000
    O2869   O    0.82090   0.89825   0.43450   1.000
    O2870   O    0.17910   0.10175   0.43450   1.000
    O2871   O    0.67911   0.60175   0.43450   1.000
    O2872   O    0.00155   0.21740   0.44535   1.000
    O2873   O    0.50155   0.71740   0.44535   1.000
    O2874   O    0.49845   0.28260   0.44535   1.000
    O2875   O    0.99845   0.78260   0.44535   1.000
    O2876   O    0.23002   0.39116   0.42849   1.000
    O2877   O    0.26998   0.10884   0.42849   1.000
    O2878   O    0.76998   0.60884   0.42849   1.000
    O2879   O    0.73002   0.89116   0.42849   1.000
    O2880   O    0.15374   0.46525   0.43680   1.000
    O2881   O    0.84626   0.53475   0.43680   1.000
    O2882   O    0.65374   0.96525   0.43680   1.000
    O2883   O    0.34626   0.03475   0.43680   1.000
    O2884   O    0.67770   0.35030   0.44380   1.000
    O2885   O    0.82230   0.14970   0.44380   1.000
    O2886   O    0.17770   0.85030   0.44380   1.000
    O2887   O    0.32230   0.64970   0.44380   1.000
    O2888   O    0.84539   0.02035   0.44760   1.000
    O2889   O    0.34539   0.52035   0.44760   1.000
    O2890   O    0.65461   0.47965   0.44760   1.000
    O2891   O    0.15461   0.97965   0.44760   1.000
    O2892   O    0.23104   0.97806   0.44111   1.000
    O2893   O    0.26897   0.52194   0.44111   1.000
    O2894   O    0.73104   0.47805   0.44111   1.000
    O2895   O    0.76897   0.02195   0.44111   1.000
    O2896   O    0.77372   0.52999   0.44299   1.000
    O2897   O    0.76128   0.56454   0.47284   1.000
    O2898   O    0.72628   0.97001   0.44299   1.000
    O2899   O    0.73872   0.93546   0.47284   1.000
    O2900   O    0.22628   0.47001   0.44299   1.000
    O2901   O    0.23872   0.43546   0.47284   1.000
    O2902   O    0.27372   0.02999   0.44299   1.000
    O2903   O    0.26128   0.06454   0.47284   1.000
    O2904   O    0.68037   0.09805   0.45395   1.000
    O2905   O    0.81963   0.40195   0.45395   1.000
    O2906   O    0.18037   0.59805   0.45395   1.000
    O2907   O    0.31963   0.90195   0.45395   1.000
    O2908   O    0.22200   0.79975   0.44040   1.000
    O2909   O    0.22462   0.84245   0.44855   1.000
    O2910   O    0.27800   0.70025   0.44040   1.000
    O2911   O    0.27538   0.65755   0.44855   1.000
    O2912   O    0.72200   0.29975   0.44040   1.000
    O2913   O    0.72462   0.34245   0.44855   1.000
    O2914   O    0.77800   0.20025   0.44040   1.000
    O2915   O    0.77538   0.15755   0.44855   1.000
    O2916   O    0.69580   0.27490   0.45050   1.000
    O2917   O    0.80420   0.22510   0.45050   1.000
    O2918   O    0.30420   0.72510   0.45050   1.000
    O2919   O    0.19580   0.77490   0.45050   1.000
    O2920   O    0.16884   0.43215   0.45295   1.000
    O2921   O    0.13955   0.43310   0.45765   1.000
    O2922   O    0.91675   0.23495   0.45090   1.000
    O2923   O    0.92390   0.20515   0.46500   1.000
    O2924   O    0.58325   0.26505   0.45090   1.000
    O2925   O    0.57610   0.29485   0.46500   1.000
    O2926   O    0.41675   0.73495   0.45090   1.000
    O2927   O    0.42390   0.70515   0.46500   1.000
    O2928   O    0.08325   0.76505   0.45090   1.000
    O2929   O    0.07610   0.79485   0.46500   1.000
    O2930   O    0.33116   0.06785   0.45295   1.000
    O2931   O    0.36045   0.06690   0.45765   1.000
    O2932   O    0.83116   0.56785   0.45295   1.000
    O2933   O    0.86045   0.56690   0.45765   1.000
    O2934   O    0.66884   0.93215   0.45295   1.000
    O2935   O    0.63955   0.93310   0.45765   1.000
    O2936   O    0.10815   0.42930   0.45815   1.000
    O2937   O    0.07995   0.42415   0.46050   1.000
    O2938   O    0.89185   0.57070   0.45815   1.000
    O2939   O    0.92005   0.57585   0.46050   1.000
    O2940   O    0.39185   0.07070   0.45815   1.000
    O2941   O    0.42005   0.07585   0.46050   1.000
    O2942   O    0.60815   0.92930   0.45815   1.000
    O2943   O    0.57995   0.92415   0.46050   1.000
    O2944   O    0.29781   0.38485   0.45545   1.000
    O2945   O    0.32435   0.37000   0.46720   1.000
    O2946   O    0.70219   0.61515   0.45545   1.000
    O2947   O    0.67565   0.63000   0.46720   1.000
    O2948   O    0.79781   0.88485   0.45545   1.000
    O2949   O    0.82435   0.87000   0.46720   1.000
    O2950   O    0.20219   0.11515   0.45545   1.000
    O2951   O    0.17565   0.13000   0.46720   1.000
    O2952   O    0.75902   0.41765   0.46596   1.000
    O2953   O    0.74099   0.08235   0.46596   1.000
    O2954   O    0.24099   0.58235   0.46596   1.000
    O2955   O    0.25901   0.91765   0.46596   1.000
    O2956   O    0.79119   0.49005   0.46660   1.000
    O2957   O    0.70881   0.00995   0.46660   1.000
    O2958   O    0.29119   0.99005   0.46660   1.000
    O2959   O    0.20881   0.50995   0.46660   1.000
    O2960   O    0.20372   0.85365   0.45910   1.000
    O2961   O    0.29628   0.64635   0.45910   1.000
    O2962   O    0.70372   0.35365   0.45910   1.000
    O2963   O    0.79628   0.14635   0.45910   1.000
    O2964   O    0.02175   0.08165   0.46390   1.000
    O2965   O    0.97825   0.91835   0.46390   1.000
    O2966   O    0.52175   0.58165   0.46390   1.000
    O2967   O    0.47825   0.41835   0.46390   1.000
    O2968   O    0.82998   0.04375   0.47400   1.000
    O2969   O    0.85867   0.04230   0.47775   1.000
    O2970   O    0.17001   0.95625   0.47400   1.000
    O2971   O    0.14133   0.95770   0.47775   1.000
    O2972   O    0.67002   0.45625   0.47400   1.000
    O2973   O    0.64133   0.45770   0.47775   1.000
    O2974   O    0.32998   0.54375   0.47400   1.000
    O2975   O    0.35867   0.54230   0.47775   1.000
    O2976   O    0.12080   0.40365   0.48430   1.000
    O2977   O    0.37920   0.09635   0.48430   1.000
    O2978   O    0.62080   0.90365   0.48430   1.000
    O2979   O    0.87920   0.59635   0.48430   1.000
    O2980   O    0.70387   0.10760   0.47565   1.000
    O2981   O    0.67805   0.12720   0.48545   1.000
    O2982   O    0.79613   0.39240   0.47565   1.000
    O2983   O    0.82195   0.37280   0.48545   1.000
    O2984   O    0.20387   0.60760   0.47565   1.000
    O2985   O    0.17805   0.62720   0.48545   1.000
    O2986   O    0.29613   0.89240   0.47565   1.000
    O2987   O    0.32195   0.87280   0.48545   1.000
    O2988   O    0.07515   0.39520   0.48750   1.000
    O2989   O    0.92485   0.60480   0.48750   1.000
    O2990   O    0.42485   0.10480   0.48750   1.000
    O2991   O    0.57515   0.89520   0.48750   1.000
    O2992   O    0.99680   0.24400   0.47820   1.000
    O2993   O    0.00493   0.20125   0.48415   1.000
    O2994   O    0.50320   0.25600   0.47820   1.000
    O2995   O    0.49508   0.29875   0.48415   1.000
    O2996   O    0.49680   0.74400   0.47820   1.000
    O2997   O    0.50493   0.70125   0.48415   1.000
    O2998   O    0.00320   0.75600   0.47820   1.000
    O2999   O    0.99508   0.79875   0.48415   1.000
    O3000   O    0.88980   0.04095   0.48165   1.000
    O3001   O    0.91873   0.04375   0.48760   1.000
    O3002   O    0.61020   0.45905   0.48165   1.000
    O3003   O    0.58127   0.45625   0.48760   1.000
    O3004   O    0.38980   0.54095   0.48165   1.000
    O3005   O    0.41873   0.54375   0.48760   1.000
    O3006   O    0.11020   0.95905   0.48165   1.000
    O3007   O    0.08127   0.95625   0.48760   1.000
    O3008   O    0.62215   0.63575   0.48255   1.000
    O3009   O    0.87785   0.86425   0.48255   1.000
    O3010   O    0.37785   0.36425   0.48255   1.000
    O3011   O    0.12215   0.13575   0.48255   1.000
    O3012   O    0.37515   0.85385   0.48825   1.000
    O3013   O    0.12485   0.64615   0.48825   1.000
    O3014   O    0.87515   0.35385   0.48825   1.000
    O3015   O    0.62485   0.14615   0.48825   1.000
    O3016   O    0.14760   0.14550   0.48710   1.000
    O3017   O    0.17140   0.16200   0.49885   1.000
    O3018   O    0.35240   0.35450   0.48710   1.000
    O3019   O    0.32860   0.33800   0.49885   1.000
    O3020   O    0.64760   0.64550   0.48710   1.000
    O3021   O    0.67140   0.66200   0.49885   1.000
    O3022   O    0.85240   0.85450   0.48710   1.000
    O3023   O    0.82860   0.83800   0.49885   1.000
    O3024   O    0.87667   0.06740   0.50895   1.000
    O3025   O    0.12333   0.93260   0.50895   1.000
    O3026   O    0.62333   0.43260   0.50895   1.000
    O3027   O    0.37668   0.56740   0.50895   1.000
    O3028   O    0.87165   0.83700   0.50920   1.000
    O3029   O    0.12835   0.16300   0.50920   1.000
    O3030   O    0.37165   0.33700   0.50920   1.000
    O3031   O    0.62835   0.66300   0.50920   1.000
    O3032   O    0.01049   0.17710   0.53574   1.000
    O3033   O    0.98952   0.82290   0.53574   1.000
    O3034   O    0.51049   0.67710   0.53574   1.000
    O3035   O    0.48952   0.32290   0.53574   1.000
    O3036   O    0.84960   0.35045   0.49955   1.000
    O3037   O    0.86965   0.32815   0.51590   1.000
    O3038   O    0.34960   0.85045   0.49955   1.000
    O3039   O    0.36965   0.82815   0.51590   1.000
    O3040   O    0.15040   0.64955   0.49955   1.000
    O3041   O    0.13035   0.67185   0.51590   1.000
    O3042   O    0.65040   0.14955   0.49955   1.000
    O3043   O    0.63035   0.17185   0.51590   1.000
    O3044   O    0.67465   0.15990   0.51725   1.000
    O3045   O    0.32535   0.84010   0.51725   1.000
    O3046   O    0.17465   0.65990   0.51725   1.000
    O3047   O    0.82535   0.34010   0.51725   1.000
    O3048   O    0.92347   0.07195   0.51860   1.000
    O3049   O    0.57653   0.42805   0.51860   1.000
    O3050   O    0.42348   0.57195   0.51860   1.000
    O3051   O    0.07652   0.92805   0.51860   1.000
    O3052   O    0.10035   0.38240   0.50265   1.000
    O3053   O    0.12605   0.37720   0.51140   1.000
    O3054   O    0.89965   0.61760   0.50265   1.000
    O3055   O    0.87395   0.62280   0.51140   1.000
    O3056   O    0.39965   0.11760   0.50265   1.000
    O3057   O    0.37395   0.12280   0.51140   1.000
    O3058   O    0.60035   0.88240   0.50265   1.000
    O3059   O    0.62605   0.87720   0.51140   1.000
    O3060   O    0.07245   0.36230   0.51890   1.000
    O3061   O    0.57245   0.86230   0.51890   1.000
    O3062   O    0.92755   0.63770   0.51890   1.000
    O3063   O    0.42755   0.13770   0.51890   1.000
    O3064   O    0.25030   0.27200   0.50900   1.000
    O3065   O    0.25060   0.30820   0.52865   1.000
    O3066   O    0.74970   0.72800   0.50900   1.000
    O3067   O    0.75030   0.77200   0.50900   1.000
    O3068   O    0.74940   0.69180   0.52865   1.000
    O3069   O    0.24970   0.22800   0.50900   1.000
    O3070   O    0.75060   0.80820   0.52865   1.000
    O3071   O    0.24940   0.19180   0.52865   1.000
    O3072   O    0.24545   0.45860   0.52490   1.000
    O3073   O    0.25455   0.04140   0.52490   1.000
    O3074   O    0.75455   0.54140   0.52490   1.000
    O3075   O    0.74546   0.95860   0.52490   1.000
    O3076   O    0.83335   0.81040   0.52785   1.000
    O3077   O    0.66665   0.68960   0.52785   1.000
    O3078   O    0.33335   0.31040   0.52785   1.000
    O3079   O    0.16665   0.18960   0.52785   1.000
    O3080   O    0.04651   0.34270   0.52885   1.000
    O3081   O    0.00896   0.32006   0.54115   1.000
    O3082   O    0.54651   0.84270   0.52885   1.000
    O3083   O    0.50896   0.82006   0.54115   1.000
    O3084   O    0.45349   0.15730   0.52885   1.000
    O3085   O    0.49104   0.17994   0.54115   1.000
    O3086   O    0.95349   0.65730   0.52885   1.000
    O3087   O    0.99104   0.67994   0.54115   1.000
    O3088   O    0.24580   0.99995   0.53155   1.000
    O3089   O    0.25420   0.50005   0.53155   1.000
    O3090   O    0.74580   0.49995   0.53155   1.000
    O3091   O    0.75420   0.00005   0.53155   1.000
    O3092   O    0.35940   0.30940   0.53460   1.000
    O3093   O    0.39000   0.31180   0.54030   1.000
    O3094   O    0.14060   0.19060   0.53460   1.000
    O3095   O    0.11000   0.18820   0.54030   1.000
    O3096   O    0.64060   0.69060   0.53460   1.000
    O3097   O    0.61000   0.68820   0.54030   1.000
    O3098   O    0.85940   0.80940   0.53460   1.000
    O3099   O    0.89000   0.81180   0.54030   1.000
    O3100   O    0.89749   0.08655   0.53180   1.000
    O3101   O    0.87111   0.09375   0.53695   1.000
    O3102   O    0.60252   0.41345   0.53180   1.000
    O3103   O    0.62890   0.40625   0.53695   1.000
    O3104   O    0.39749   0.58655   0.53180   1.000
    O3105   O    0.37111   0.59375   0.53695   1.000
    O3106   O    0.10252   0.91345   0.53180   1.000
    O3107   O    0.12890   0.90625   0.53695   1.000
    O3108   O    0.38850   0.79810   0.54220   1.000
    O3109   O    0.35755   0.80415   0.54390   1.000
    O3110   O    0.61150   0.20190   0.54220   1.000
    O3111   O    0.64245   0.19585   0.54390   1.000
    O3112   O    0.11150   0.70190   0.54220   1.000
    O3113   O    0.14245   0.69585   0.54390   1.000
    O3114   O    0.88850   0.29810   0.54220   1.000
    O3115   O    0.85755   0.30415   0.54390   1.000
    O3116   O    0.95857   0.21550   0.54745   1.000
    O3117   O    0.54144   0.28450   0.54745   1.000
    O3118   O    0.04143   0.78450   0.54745   1.000
    O3119   O    0.32190   0.97960   0.55175   1.000
    O3120   O    0.45856   0.71550   0.54745   1.000
    O3121   O    0.17810   0.52040   0.55175   1.000
    O3122   O    0.67810   0.02040   0.55175   1.000
    O3123   O    0.82190   0.47960   0.55175   1.000
    O3124   O    0.16935   0.68825   0.54430   1.000
    O3125   O    0.33065   0.81175   0.54430   1.000
    O3126   O    0.83065   0.31175   0.54430   1.000
    O3127   O    0.66935   0.18825   0.54430   1.000
    O3128   O    0.93025   0.66430   0.55220   1.000
    O3129   O    0.91842   0.29515   0.54275   1.000
    O3130   O    0.41842   0.79515   0.54275   1.000
    O3131   O    0.06975   0.33570   0.55220   1.000
    O3132   O    0.43025   0.16430   0.55220   1.000
    O3133   O    0.08158   0.70485   0.54275   1.000
    O3134   O    0.56975   0.83570   0.55220   1.000
    O3135   O    0.58158   0.20485   0.54275   1.000
    O3136   O    0.92613   0.10475   0.55030   1.000
    O3137   O    0.07387   0.89525   0.55030   1.000
    O3138   O    0.42613   0.60475   0.55030   1.000
    O3139   O    0.57387   0.39525   0.55030   1.000
    O3140   O    0.05800   0.57175   0.54710   1.000
    O3141   O    0.55800   0.07175   0.54710   1.000
    O3142   O    0.44200   0.92825   0.54710   1.000
    O3143   O    0.94200   0.42825   0.54710   1.000
    O3144   O    0.72895   0.83220   0.54315   1.000
    O3145   O    0.77105   0.66780   0.54315   1.000
    O3146   O    0.22895   0.33220   0.54315   1.000
    O3147   O    0.27105   0.16780   0.54315   1.000
    O3148   O    0.25050   0.02770   0.56445   1.000
    O3149   O    0.24950   0.47230   0.56445   1.000
    O3150   O    0.75050   0.52770   0.56445   1.000
    O3151   O    0.74950   0.97230   0.56445   1.000
    O3152   O    0.58035   0.68435   0.54785   1.000
    O3153   O    0.41965   0.31565   0.54785   1.000
    O3154   O    0.08035   0.18435   0.54785   1.000
    O3155   O    0.91965   0.81565   0.54785   1.000
    O3156   O    0.59680   0.23125   0.56695   1.000
    O3157   O    0.90321   0.26875   0.56695   1.000
    O3158   O    0.09679   0.73125   0.56695   1.000
    O3159   O    0.40321   0.76875   0.56695   1.000
    O3160   O    0.96125   0.39570   0.55485   1.000
    O3161   O    0.98000   0.34046   0.55510   1.000
    O3162   O    0.53875   0.10430   0.55485   1.000
    O3163   O    0.52000   0.15954   0.55510   1.000
    O3164   O    0.03875   0.60430   0.55485   1.000
    O3165   O    0.02000   0.65954   0.55510   1.000
    O3166   O    0.46125   0.89570   0.55485   1.000
    O3167   O    0.48000   0.84046   0.55510   1.000
    O3168   O    0.90434   0.78660   0.56865   1.000
    O3169   O    0.59567   0.71340   0.56865   1.000
    O3170   O    0.40434   0.28660   0.56865   1.000
    O3171   O    0.09566   0.21340   0.56865   1.000
    O3172   O    0.95267   0.12000   0.56155   1.000
    O3173   O    0.45267   0.62000   0.56155   1.000
    O3174   O    0.54733   0.38000   0.56155   1.000
    O3175   O    0.04733   0.88000   0.56155   1.000
    O3176   O    0.97632   0.26046   0.56019   1.000
    O3177   O    0.00599   0.27516   0.56775   1.000
    O3178   O    0.02369   0.73954   0.56020   1.000
    O3179   O    0.99401   0.72484   0.56775   1.000
    O3180   O    0.47631   0.76046   0.56020   1.000
    O3181   O    0.50599   0.77516   0.56775   1.000
    O3182   O    0.52369   0.23954   0.56020   1.000
    O3183   O    0.49401   0.22484   0.56775   1.000
    O3184   O    0.92914   0.13590   0.57940   1.000
    O3185   O    0.07086   0.86410   0.57940   1.000
    O3186   O    0.42914   0.63590   0.57940   1.000
    O3187   O    0.57086   0.36410   0.57940   1.000
    O3188   O    0.06857   0.29933   0.59839   1.000
    O3189   O    0.32765   0.97635   0.59175   1.000
    O3190   O    0.17235   0.52365   0.59175   1.000
    O3191   O    0.82765   0.47635   0.59175   1.000
    O3192   O    0.67235   0.02365   0.59175   1.000
    O3193   O    0.56858   0.79933   0.59839   1.000
    O3194   O    0.93143   0.70067   0.59839   1.000
    O3195   O    0.43143   0.20067   0.59839   1.000
    O3196   O    0.02186   0.13440   0.57824   1.000
    O3197   O    0.02985   0.17920   0.60599   1.000
    O3198   O    0.99871   0.17565   0.60664   1.000
    O3199   O    0.97814   0.86560   0.57824   1.000
    O3200   O    0.97016   0.82080   0.60599   1.000
    O3201   O    0.00130   0.82435   0.60664   1.000
    O3202   O    0.52186   0.63440   0.57824   1.000
    O3203   O    0.52985   0.67920   0.60599   1.000
    O3204   O    0.49871   0.67565   0.60664   1.000
    O3205   O    0.47814   0.36560   0.57824   1.000
    O3206   O    0.47016   0.32080   0.60599   1.000
    O3207   O    0.50130   0.32435   0.60664   1.000
    O3208   O    0.04236   0.26143   0.60164   1.000
    O3209   O    0.54237   0.76143   0.60164   1.000
    O3210   O    0.45764   0.23857   0.60164   1.000
    O3211   O    0.95764   0.73857   0.60164   1.000
    O3212   O    0.04600   0.08635   0.58455   1.000
    O3213   O    0.95400   0.91365   0.58455   1.000
    O3214   O    0.54600   0.58635   0.58455   1.000
    O3215   O    0.45400   0.41365   0.58455   1.000
    O3216   O    0.07928   0.76486   0.60797   1.000
    O3217   O    0.57928   0.26485   0.60797   1.000
    O3218   O    0.92073   0.23515   0.60797   1.000
    O3219   O    0.42073   0.73514   0.60797   1.000
    O3220   O    0.42146   0.24817   0.60554   1.000
    O3221   O    0.92146   0.74817   0.60554   1.000
    O3222   O    0.57854   0.75183   0.60554   1.000
    O3223   O    0.07854   0.25183   0.60554   1.000
    O3224   O    0.07250   0.08660   0.60080   1.000
    O3225   O    0.57250   0.58660   0.60080   1.000
    O3226   O    0.92750   0.91340   0.60080   1.000
    O3227   O    0.42750   0.41340   0.60080   1.000
    O3228   O    0.33805   0.48340   0.60070   1.000
    O3229   O    0.16195   0.01660   0.60070   1.000
    O3230   O    0.83805   0.98340   0.60070   1.000
    O3231   O    0.66195   0.51660   0.60070   1.000
    O3232   O    0.74485   0.94290   0.59730   1.000
    O3233   O    0.75140   0.98175   0.61045   1.000
    O3234   O    0.24485   0.44290   0.59730   1.000
    O3235   O    0.25140   0.48175   0.61045   1.000
    O3236   O    0.25515   0.05710   0.59730   1.000
    O3237   O    0.24860   0.01825   0.61045   1.000
    O3238   O    0.75515   0.55710   0.59730   1.000
    O3239   O    0.74860   0.51825   0.61045   1.000
    O3240   O    0.93056   0.18470   0.61347   1.000
    O3241   O    0.56944   0.31531   0.61347   1.000
    O3242   O    0.06944   0.81531   0.61347   1.000
    O3243   O    0.43056   0.68469   0.61347   1.000
    O3244   O    0.14210   0.01965   0.60665   1.000
    O3245   O    0.85790   0.98035   0.60665   1.000
    O3246   O    0.35790   0.48035   0.60665   1.000
    O3247   O    0.64210   0.51965   0.60665   1.000
    O3248   O    0.24060   0.41705   0.62790   1.000
    O3249   O    0.25940   0.08295   0.62790   1.000
    O3250   O    0.75940   0.58295   0.62790   1.000
    O3251   O    0.74060   0.91705   0.62790   1.000
    O3252   O    0.15300   0.99740   0.61925   1.000
    O3253   O    0.15765   0.03360   0.63415   1.000
    O3254   O    0.84700   0.00260   0.61925   1.000
    O3255   O    0.84235   0.96640   0.63415   1.000
    O3256   O    0.34700   0.50260   0.61925   1.000
    O3257   O    0.34235   0.46640   0.63415   1.000
    O3258   O    0.65300   0.49740   0.61925   1.000
    O3259   O    0.65765   0.53360   0.63415   1.000
    O3260   O    0.84370   0.50800   0.62520   1.000
    O3261   O    0.83505   0.46480   0.63610   1.000
    O3262   O    0.15630   0.49200   0.62520   1.000
    O3263   O    0.16495   0.53520   0.63610   1.000
    O3264   O    0.34370   0.00800   0.62520   1.000
    O3265   O    0.33505   0.96480   0.63610   1.000
    O3266   O    0.65630   0.99200   0.62520   1.000
    O3267   O    0.66495   0.03520   0.63610   1.000
    O3268   O    0.02144   0.35270   0.61640   1.000
    O3269   O    0.47856   0.14730   0.61640   1.000
    O3270   O    0.52145   0.85270   0.61640   1.000
    O3271   O    0.97856   0.64730   0.61640   1.000
    O3272   O    0.82600   0.89415   0.63025   1.000
    O3273   O    0.67400   0.60585   0.63025   1.000
    O3274   O    0.32600   0.39415   0.63025   1.000
    O3275   O    0.17400   0.10585   0.63025   1.000
    O3276   O    0.00207   0.32674   0.65144   1.000
    O3277   O    0.49794   0.17326   0.65144   1.000
    O3278   O    0.99794   0.67326   0.65144   1.000
    O3279   O    0.50206   0.82674   0.65144   1.000
    O3280   O    0.95096   0.25450   0.62872   1.000
    O3281   O    0.97441   0.30454   0.65419   1.000
    O3282   O    0.54904   0.24550   0.62872   1.000
    O3283   O    0.52559   0.19546   0.65419   1.000
    O3284   O    0.45096   0.75450   0.62872   1.000
    O3285   O    0.47441   0.80454   0.65419   1.000
    O3286   O    0.04904   0.74551   0.62872   1.000
    O3287   O    0.02559   0.69546   0.65419   1.000
    O3288   O    0.83635   0.71050   0.62650   1.000
    O3289   O    0.66365   0.78950   0.62650   1.000
    O3290   O    0.33635   0.21050   0.62650   1.000
    O3291   O    0.16365   0.28950   0.62650   1.000
    O3292   O    0.06907   0.30588   0.64738   1.000
    O3293   O    0.07841   0.25833   0.65309   1.000
    O3294   O    0.04252   0.26878   0.65394   1.000
    O3295   O    0.56907   0.80588   0.64739   1.000
    O3296   O    0.57842   0.75833   0.65309   1.000
    O3297   O    0.54253   0.76878   0.65394   1.000
    O3298   O    0.93093   0.69412   0.64739   1.000
    O3299   O    0.92159   0.74167   0.65309   1.000
    O3300   O    0.95748   0.73122   0.65394   1.000
    O3301   O    0.43093   0.19412   0.64739   1.000
    O3302   O    0.42159   0.24167   0.65309   1.000
    O3303   O    0.45747   0.23122   0.65394   1.000
    O3304   O    0.00605   0.43705   0.64075   1.000
    O3305   O    0.99395   0.56295   0.64075   1.000
    O3306   O    0.50605   0.93705   0.64075   1.000
    O3307   O    0.49395   0.06295   0.64075   1.000
    O3308   O    0.68450   0.75385   0.62935   1.000
    O3309   O    0.31550   0.24615   0.62935   1.000
    O3310   O    0.18450   0.25385   0.62935   1.000
    O3311   O    0.81550   0.74615   0.62935   1.000
    O3312   O    0.75700   0.01390   0.63090   1.000
    O3313   O    0.75100   0.97995   0.64965   1.000
    O3314   O    0.74300   0.48610   0.63090   1.000
    O3315   O    0.74900   0.52005   0.64965   1.000
    O3316   O    0.24300   0.98610   0.63090   1.000
    O3317   O    0.24900   0.02005   0.64965   1.000
    O3318   O    0.25700   0.51390   0.63090   1.000
    O3319   O    0.25100   0.47995   0.64965   1.000
    O3320   O    0.34540   0.38920   0.63770   1.000
    O3321   O    0.65460   0.61080   0.63770   1.000
    O3322   O    0.84540   0.88920   0.63770   1.000
    O3323   O    0.15460   0.11080   0.63770   1.000
    O3324   O    0.96242   0.19859   0.63582   1.000
    O3325   O    0.92096   0.24145   0.65417   1.000
    O3326   O    0.93109   0.19094   0.66037   1.000
    O3327   O    0.53759   0.30140   0.63582   1.000
    O3328   O    0.57904   0.25855   0.65417   1.000
    O3329   O    0.56891   0.30905   0.66037   1.000
    O3330   O    0.03758   0.80141   0.63582   1.000
    O3331   O    0.07904   0.75855   0.65417   1.000
    O3332   O    0.06891   0.80905   0.66037   1.000
    O3333   O    0.46241   0.69859   0.63582   1.000
    O3334   O    0.42096   0.74145   0.65417   1.000
    O3335   O    0.43109   0.69095   0.66037   1.000
    O3336   O    0.05734   0.17360   0.63855   1.000
    O3337   O    0.44267   0.32640   0.63855   1.000
    O3338   O    0.55734   0.67360   0.63855   1.000
    O3339   O    0.94266   0.82640   0.63855   1.000
    O3340   O    0.24960   0.85750   0.65850   1.000
    O3341   O    0.18750   0.85350   0.64450   1.000
    O3342   O    0.75040   0.14250   0.65850   1.000
    O3343   O    0.25040   0.64250   0.65850   1.000
    O3344   O    0.74960   0.35750   0.65850   1.000
    O3345   O    0.31250   0.64650   0.64450   1.000
    O3346   O    0.81250   0.14650   0.64450   1.000
    O3347   O    0.68750   0.35350   0.64450   1.000
    O3348   O    0.33620   0.42195   0.64905   1.000
    O3349   O    0.33060   0.38640   0.65725   1.000
    O3350   O    0.16380   0.07805   0.64905   1.000
    O3351   O    0.16940   0.11360   0.65725   1.000
    O3352   O    0.83620   0.92195   0.64905   1.000
    O3353   O    0.83060   0.88640   0.65725   1.000
    O3354   O    0.66380   0.57805   0.64905   1.000
    O3355   O    0.66940   0.61360   0.65725   1.000
    O3356   O    0.75575   0.56045   0.66040   1.000
    O3357   O    0.25575   0.06045   0.66040   1.000
    O3358   O    0.24425   0.43955   0.66040   1.000
    O3359   O    0.74425   0.93955   0.66040   1.000
    O3360   O    0.98265   0.41685   0.66345   1.000
    O3361   O    0.01735   0.58315   0.66345   1.000
    O3362   O    0.48265   0.91685   0.66345   1.000
    O3363   O    0.51735   0.08315   0.66345   1.000
    O3364   O    0.16535   0.04250   0.67675   1.000
    O3365   O    0.33465   0.45750   0.67675   1.000
    O3366   O    0.83465   0.95750   0.67675   1.000
    O3367   O    0.66535   0.54250   0.67675   1.000
    O3368   O    0.07090   0.35175   0.68450   1.000
    O3369   O    0.92911   0.64825   0.68450   1.000
    O3370   O    0.57090   0.85175   0.68450   1.000
    O3371   O    0.42910   0.14825   0.68450   1.000
    O3372   O    0.25155   0.03260   0.69535   1.000
    O3373   O    0.24845   0.46740   0.69535   1.000
    O3374   O    0.75155   0.53260   0.69535   1.000
    O3375   O    0.74845   0.96740   0.69535   1.000
    O3376   O    0.98002   0.35884   0.67849   1.000
    O3377   O    0.01998   0.64116   0.67849   1.000
    O3378   O    0.51998   0.14116   0.67849   1.000
    O3379   O    0.48002   0.85884   0.67849   1.000
    O3380   O    0.90374   0.28475   0.68680   1.000
    O3381   O    0.59626   0.21525   0.68680   1.000
    O3382   O    0.40374   0.78475   0.68680   1.000
    O3383   O    0.09626   0.71525   0.68680   1.000
    O3384   O    0.07230   0.10030   0.69380   1.000
    O3385   O    0.57230   0.60030   0.69380   1.000
    O3386   O    0.92770   0.89970   0.69380   1.000
    O3387   O    0.42770   0.39970   0.69380   1.000
    O3388   O    0.09539   0.22965   0.69760   1.000
    O3389   O    0.59539   0.72965   0.69760   1.000
    O3390   O    0.90461   0.77035   0.69760   1.000
    O3391   O    0.40461   0.27035   0.69760   1.000
    O3392   O    0.01896   0.22805   0.69111   1.000
    O3393   O    0.98104   0.77195   0.69111   1.000
    O3394   O    0.51897   0.72806   0.69111   1.000
    O3395   O    0.48103   0.27195   0.69111   1.000
    O3396   O    0.97628   0.27999   0.69299   1.000
    O3397   O    0.98872   0.31454   0.72284   1.000
    O3398   O    0.47628   0.77999   0.69299   1.000
    O3399   O    0.48872   0.81454   0.72284   1.000
    O3400   O    0.52372   0.22001   0.69299   1.000
    O3401   O    0.51128   0.18546   0.72284   1.000
    O3402   O    0.02372   0.72001   0.69299   1.000
    O3403   O    0.01128   0.68546   0.72284   1.000
    O3404   O    0.93037   0.15195   0.70395   1.000
    O3405   O    0.06963   0.84805   0.70395   1.000
    O3406   O    0.43037   0.65195   0.70395   1.000
    O3407   O    0.56963   0.34805   0.70395   1.000
    O3408   O    0.02800   0.04975   0.69040   1.000
    O3409   O    0.02538   0.09245   0.69855   1.000
    O3410   O    0.52800   0.54975   0.69040   1.000
    O3411   O    0.52538   0.59245   0.69855   1.000
    O3412   O    0.47200   0.45025   0.69040   1.000
    O3413   O    0.47462   0.40755   0.69855   1.000
    O3414   O    0.97200   0.95025   0.69040   1.000
    O3415   O    0.97462   0.90755   0.69855   1.000
    O3416   O    0.05420   0.02490   0.70050   1.000
    O3417   O    0.55420   0.52490   0.70050   1.000
    O3418   O    0.94580   0.97510   0.70050   1.000
    O3419   O    0.44580   0.47510   0.70050   1.000
    O3420   O    0.41884   0.81785   0.70295   1.000
    O3421   O    0.38955   0.81690   0.70765   1.000
    O3422   O    0.58116   0.18215   0.70295   1.000
    O3423   O    0.61045   0.18310   0.70765   1.000
    O3424   O    0.66675   0.51505   0.70090   1.000
    O3425   O    0.67390   0.54485   0.71500   1.000
    O3426   O    0.08116   0.68215   0.70295   1.000
    O3427   O    0.11045   0.68310   0.70765   1.000
    O3428   O    0.33325   0.48495   0.70090   1.000
    O3429   O    0.32610   0.45515   0.71500   1.000
    O3430   O    0.16675   0.01505   0.70090   1.000
    O3431   O    0.17390   0.04485   0.71500   1.000
    O3432   O    0.83325   0.98495   0.70090   1.000
    O3433   O    0.82610   0.95515   0.71500   1.000
    O3434   O    0.91884   0.31785   0.70295   1.000
    O3435   O    0.88955   0.31690   0.70765   1.000
    O3436   O    0.64185   0.17930   0.70815   1.000
    O3437   O    0.67005   0.17415   0.71050   1.000
    O3438   O    0.85815   0.32070   0.70815   1.000
    O3439   O    0.82995   0.32585   0.71050   1.000
    O3440   O    0.14185   0.67930   0.70815   1.000
    O3441   O    0.17005   0.67415   0.71050   1.000
    O3442   O    0.35815   0.82070   0.70815   1.000
    O3443   O    0.32995   0.82585   0.71050   1.000
    O3444   O    0.45219   0.13485   0.70545   1.000
    O3445   O    0.42565   0.12000   0.71720   1.000
    O3446   O    0.04781   0.36515   0.70545   1.000
    O3447   O    0.07435   0.38000   0.71720   1.000
    O3448   O    0.95219   0.63485   0.70545   1.000
    O3449   O    0.92565   0.62000   0.71720   1.000
    O3450   O    0.54781   0.86515   0.70545   1.000
    O3451   O    0.57435   0.88000   0.71720   1.000
    O3452   O    0.99099   0.16765   0.71596   1.000
    O3453   O    0.00902   0.83235   0.71596   1.000
    O3454   O    0.49099   0.66765   0.71596   1.000
    O3455   O    0.50902   0.33235   0.71596   1.000
    O3456   O    0.95882   0.24005   0.71660   1.000
    O3457   O    0.54119   0.25995   0.71660   1.000
    O3458   O    0.04119   0.75995   0.71660   1.000
    O3459   O    0.45881   0.74005   0.71660   1.000
    O3460   O    0.04628   0.10365   0.70910   1.000
    O3461   O    0.45372   0.39635   0.70910   1.000
    O3462   O    0.54628   0.60365   0.70910   1.000
    O3463   O    0.95372   0.89635   0.70910   1.000
    O3464   O    0.27175   0.16835   0.71390   1.000
    O3465   O    0.22825   0.33165   0.71390   1.000
    O3466   O    0.77175   0.66835   0.71390   1.000
    O3467   O    0.72825   0.83165   0.71390   1.000
    O3468   O    0.07998   0.20625   0.72400   1.000
    O3469   O    0.10867   0.20770   0.72775   1.000
    O3470   O    0.42001   0.29375   0.72400   1.000
    O3471   O    0.39133   0.29230   0.72775   1.000
    O3472   O    0.57999   0.70625   0.72400   1.000
    O3473   O    0.60867   0.70770   0.72775   1.000
    O3474   O    0.92002   0.79375   0.72400   1.000
    O3475   O    0.89133   0.79230   0.72775   1.000
    O3476   O    0.62920   0.15365   0.73430   1.000
    O3477   O    0.87080   0.34635   0.73430   1.000
    O3478   O    0.12920   0.65365   0.73430   1.000
    O3479   O    0.37080   0.84635   0.73430   1.000
    O3480   O    0.45387   0.64240   0.72565   1.000
    O3481   O    0.42805   0.62280   0.73545   1.000
    O3482   O    0.95387   0.14240   0.72565   1.000
    O3483   O    0.92805   0.12280   0.73545   1.000
    O3484   O    0.54613   0.35760   0.72565   1.000
    O3485   O    0.57195   0.37720   0.73545   1.000
    O3486   O    0.04613   0.85760   0.72565   1.000
    O3487   O    0.07195   0.87720   0.73545   1.000
    O3488   O    0.67485   0.14520   0.73750   1.000
    O3489   O    0.82515   0.35480   0.73750   1.000
    O3490   O    0.17485   0.64520   0.73750   1.000
    O3491   O    0.32515   0.85480   0.73750   1.000
    O3492   O    0.25320   0.49400   0.72820   1.000
    O3493   O    0.24507   0.45125   0.73415   1.000
    O3494   O    0.24680   0.00600   0.72820   1.000
    O3495   O    0.25492   0.04875   0.73415   1.000
    O3496   O    0.74680   0.50600   0.72820   1.000
    O3497   O    0.75493   0.54875   0.73415   1.000
    O3498   O    0.75320   0.99400   0.72820   1.000
    O3499   O    0.74508   0.95125   0.73415   1.000
    O3500   O    0.86020   0.79095   0.73165   1.000
    O3501   O    0.83128   0.79375   0.73760   1.000
    O3502   O    0.13980   0.20905   0.73165   1.000
    O3503   O    0.16873   0.20625   0.73760   1.000
    O3504   O    0.36020   0.29095   0.73165   1.000
    O3505   O    0.33127   0.29375   0.73760   1.000
    O3506   O    0.63980   0.70905   0.73165   1.000
    O3507   O    0.66873   0.70625   0.73760   1.000
    O3508   O    0.12785   0.38575   0.73255   1.000
    O3509   O    0.37215   0.11425   0.73255   1.000
    O3510   O    0.62785   0.88575   0.73255   1.000
    O3511   O    0.87215   0.61425   0.73255   1.000
    O3512   O    0.12515   0.89615   0.73825   1.000
    O3513   O    0.37485   0.60385   0.73825   1.000
    O3514   O    0.87485   0.10385   0.73825   1.000
    O3515   O    0.62515   0.39615   0.73825   1.000
    O3516   O    0.10240   0.39550   0.73710   1.000
    O3517   O    0.07860   0.41200   0.74885   1.000
    O3518   O    0.89760   0.60450   0.73710   1.000
    O3519   O    0.92140   0.58800   0.74885   1.000
    O3520   O    0.60240   0.89550   0.73710   1.000
    O3521   O    0.57860   0.91200   0.74885   1.000
    O3522   O    0.39760   0.10450   0.73710   1.000
    O3523   O    0.42140   0.08800   0.74885   1.000
    O3524   O    0.87333   0.81740   0.75895   1.000
    O3525   O    0.62667   0.68260   0.75895   1.000
    O3526   O    0.37333   0.31740   0.75895   1.000
    O3527   O    0.12667   0.18260   0.75895   1.000
    O3528   O    0.12165   0.41300   0.75920   1.000
    O3529   O    0.87835   0.58700   0.75920   1.000
    O3530   O    0.37835   0.08700   0.75920   1.000
    O3531   O    0.62165   0.91300   0.75920   1.000
    O3532   O    0.76048   0.57290   0.78574   1.000
    O3533   O    0.73952   0.92710   0.78574   1.000
    O3534   O    0.26049   0.07290   0.78574   1.000
    O3535   O    0.23952   0.42710   0.78574   1.000
    O3536   O    0.90040   0.10045   0.74955   1.000
    O3537   O    0.88035   0.07815   0.76590   1.000
    O3538   O    0.09960   0.89955   0.74955   1.000
    O3539   O    0.11965   0.92185   0.76590   1.000
    O3540   O    0.59960   0.39955   0.74955   1.000
    O3541   O    0.61965   0.42185   0.76590   1.000
    O3542   O    0.40040   0.60045   0.74955   1.000
    O3543   O    0.38035   0.57815   0.76590   1.000
    O3544   O    0.57535   0.40990   0.76725   1.000
    O3545   O    0.07535   0.90990   0.76725   1.000
    O3546   O    0.42465   0.59010   0.76725   1.000
    O3547   O    0.92465   0.09010   0.76725   1.000
    O3548   O    0.82653   0.82195   0.76860   1.000
    O3549   O    0.67348   0.67805   0.76860   1.000
    O3550   O    0.32653   0.32195   0.76860   1.000
    O3551   O    0.17347   0.17805   0.76860   1.000
    O3552   O    0.64965   0.13240   0.75265   1.000
    O3553   O    0.62395   0.12720   0.76140   1.000
    O3554   O    0.85035   0.36760   0.75265   1.000
    O3555   O    0.87605   0.37280   0.76140   1.000
    O3556   O    0.14965   0.63240   0.75265   1.000
    O3557   O    0.12395   0.62720   0.76140   1.000
    O3558   O    0.35035   0.86760   0.75265   1.000
    O3559   O    0.37605   0.87280   0.76140   1.000
    O3560   O    0.67755   0.11230   0.76890   1.000
    O3561   O    0.32245   0.88770   0.76890   1.000
    O3562   O    0.82245   0.38770   0.76890   1.000
    O3563   O    0.17755   0.61230   0.76890   1.000
    O3564   O    0.00030   0.47800   0.75900   1.000
    O3565   O    0.00060   0.44180   0.77865   1.000
    O3566   O    0.99970   0.52200   0.75900   1.000
    O3567   O    0.99940   0.55820   0.77865   1.000
    O3568   O    0.49970   0.02200   0.75900   1.000
    O3569   O    0.49940   0.05820   0.77865   1.000
    O3570   O    0.50030   0.97800   0.75900   1.000
    O3571   O    0.50060   0.94180   0.77865   1.000
    O3572   O    0.49545   0.79140   0.77490   1.000
    O3573   O    0.99546   0.29140   0.77490   1.000
    O3574   O    0.00455   0.70860   0.77490   1.000
    O3575   O    0.50455   0.20860   0.77490   1.000
    O3576   O    0.08335   0.43960   0.77785   1.000
    O3577   O    0.41665   0.06040   0.77785   1.000
    O3578   O    0.91665   0.56040   0.77785   1.000
    O3579   O    0.58335   0.93960   0.77785   1.000
    O3580   O    0.20349   0.59270   0.77885   1.000
    O3581   O    0.24104   0.57006   0.79115   1.000
    O3582   O    0.79651   0.40730   0.77885   1.000
    O3583   O    0.75896   0.42994   0.79115   1.000
    O3584   O    0.70349   0.09270   0.77885   1.000
    O3585   O    0.74104   0.07006   0.79115   1.000
    O3586   O    0.29651   0.90730   0.77885   1.000
    O3587   O    0.25896   0.92994   0.79115   1.000
    O3588   O    0.99580   0.75005   0.78155   1.000
    O3589   O    0.49580   0.25005   0.78155   1.000
    O3590   O    0.00420   0.24995   0.78155   1.000
    O3591   O    0.50420   0.74995   0.78155   1.000
    O3592   O    0.10940   0.44060   0.78460   1.000
    O3593   O    0.14000   0.43820   0.79030   1.000
    O3594   O    0.60940   0.94060   0.78460   1.000
    O3595   O    0.64000   0.93820   0.79030   1.000
    O3596   O    0.39060   0.05940   0.78460   1.000
    O3597   O    0.36000   0.06180   0.79030   1.000
    O3598   O    0.89060   0.55940   0.78460   1.000
    O3599   O    0.86000   0.56180   0.79030   1.000
    O3600   O    0.35252   0.33655   0.78180   1.000
    O3601   O    0.37889   0.34375   0.78695   1.000
    O3602   O    0.85252   0.83655   0.78180   1.000
    O3603   O    0.87890   0.84375   0.78695   1.000
    O3604   O    0.14749   0.16345   0.78180   1.000
    O3605   O    0.12111   0.15625   0.78695   1.000
    O3606   O    0.64749   0.66345   0.78180   1.000
    O3607   O    0.62111   0.65625   0.78695   1.000
    O3608   O    0.86150   0.04810   0.79220   1.000
    O3609   O    0.89245   0.05415   0.79390   1.000
    O3610   O    0.13850   0.95190   0.79220   1.000
    O3611   O    0.10755   0.94585   0.79390   1.000
    O3612   O    0.36150   0.54810   0.79220   1.000
    O3613   O    0.39245   0.55415   0.79390   1.000
    O3614   O    0.63850   0.45190   0.79220   1.000
    O3615   O    0.60755   0.44585   0.79390   1.000
    O3616   O    0.92810   0.22960   0.80175   1.000
    O3617   O    0.20857   0.03450   0.79745   1.000
    O3618   O    0.07190   0.77040   0.80175   1.000
    O3619   O    0.29144   0.46550   0.79745   1.000
    O3620   O    0.42810   0.72960   0.80175   1.000
    O3621   O    0.57190   0.27040   0.80175   1.000
    O3622   O    0.70857   0.53450   0.79745   1.000
    O3623   O    0.79143   0.96550   0.79745   1.000
    O3624   O    0.91935   0.06175   0.79430   1.000
    O3625   O    0.08065   0.93825   0.79430   1.000
    O3626   O    0.41935   0.56175   0.79430   1.000
    O3627   O    0.58065   0.43825   0.79430   1.000
    O3628   O    0.68025   0.08570   0.80220   1.000
    O3629   O    0.83158   0.04515   0.79275   1.000
    O3630   O    0.31975   0.91430   0.80220   1.000
    O3631   O    0.18025   0.58570   0.80220   1.000
    O3632   O    0.81975   0.41430   0.80220   1.000
    O3633   O    0.16842   0.95485   0.79275   1.000
    O3634   O    0.33158   0.54515   0.79275   1.000
    O3635   O    0.66842   0.45485   0.79275   1.000
    O3636   O    0.17613   0.14525   0.80030   1.000
    O3637   O    0.32387   0.35475   0.80030   1.000
    O3638   O    0.67613   0.64525   0.80030   1.000
    O3639   O    0.82387   0.85475   0.80030   1.000
    O3640   O    0.69200   0.32175   0.79710   1.000
    O3641   O    0.30800   0.67825   0.79710   1.000
    O3642   O    0.19200   0.82175   0.79710   1.000
    O3643   O    0.80800   0.17825   0.79710   1.000
    O3644   O    0.97895   0.41780   0.79315   1.000
    O3645   O    0.52105   0.08220   0.79315   1.000
    O3646   O    0.02105   0.58220   0.79315   1.000
    O3647   O    0.47895   0.91780   0.79315   1.000
    O3648   O    0.50050   0.22230   0.81445   1.000
    O3649   O    0.49950   0.77770   0.81445   1.000
    O3650   O    0.00050   0.72230   0.81445   1.000
    O3651   O    0.99950   0.27770   0.81445   1.000
    O3652   O    0.16965   0.43435   0.79785   1.000
    O3653   O    0.66965   0.93435   0.79785   1.000
    O3654   O    0.33035   0.06565   0.79785   1.000
    O3655   O    0.83035   0.56565   0.79785   1.000
    O3656   O    0.34680   0.51875   0.81695   1.000
    O3657   O    0.15321   0.98125   0.81695   1.000
    O3658   O    0.84680   0.01875   0.81695   1.000
    O3659   O    0.65321   0.48125   0.81695   1.000
    O3660   O    0.71125   0.35430   0.80485   1.000
    O3661   O    0.73000   0.40954   0.80510   1.000
    O3662   O    0.78875   0.14570   0.80485   1.000
    O3663   O    0.77000   0.09046   0.80510   1.000
    O3664   O    0.21125   0.85430   0.80485   1.000
    O3665   O    0.23000   0.90954   0.80510   1.000
    O3666   O    0.28875   0.64570   0.80485   1.000
    O3667   O    0.27000   0.59046   0.80510   1.000
    O3668   O    0.15434   0.46340   0.81865   1.000
    O3669   O    0.34567   0.03660   0.81865   1.000
    O3670   O    0.84566   0.53660   0.81865   1.000
    O3671   O    0.65434   0.96340   0.81865   1.000
    O3672   O    0.29733   0.37000   0.81155   1.000
    O3673   O    0.70267   0.63000   0.81155   1.000
    O3674   O    0.20267   0.13000   0.81155   1.000
    O3675   O    0.79733   0.87000   0.81155   1.000
    O3676   O    0.77369   0.01046   0.81020   1.000
    O3677   O    0.74401   0.02516   0.81775   1.000
    O3678   O    0.22632   0.98954   0.81020   1.000
    O3679   O    0.25599   0.97484   0.81775   1.000
    O3680   O    0.27369   0.51046   0.81020   1.000
    O3681   O    0.24401   0.52516   0.81775   1.000
    O3682   O    0.72631   0.48954   0.81020   1.000
    O3683   O    0.75599   0.47484   0.81775   1.000
    O3684   O    0.17914   0.11410   0.82940   1.000
    O3685   O    0.32086   0.38590   0.82940   1.000
    O3686   O    0.67914   0.61410   0.82940   1.000
    O3687   O    0.82086   0.88590   0.82940   1.000
    O3688   O    0.92235   0.22635   0.84175   1.000
    O3689   O    0.57765   0.27365   0.84175   1.000
    O3690   O    0.18143   0.54933   0.84839   1.000
    O3691   O    0.81858   0.45067   0.84839   1.000
    O3692   O    0.68143   0.04933   0.84839   1.000
    O3693   O    0.31857   0.95067   0.84839   1.000
    O3694   O    0.07765   0.77365   0.84175   1.000
    O3695   O    0.42235   0.72635   0.84175   1.000
    O3696   O    0.22814   0.38440   0.82824   1.000
    O3697   O    0.22015   0.42920   0.85599   1.000
    O3698   O    0.25129   0.42565   0.85664   1.000
    O3699   O    0.27186   0.11560   0.82824   1.000
    O3700   O    0.27985   0.07080   0.85599   1.000
    O3701   O    0.24871   0.07435   0.85664   1.000
    O3702   O    0.77186   0.61560   0.82824   1.000
    O3703   O    0.77985   0.57080   0.85599   1.000
    O3704   O    0.74871   0.57435   0.85664   1.000
    O3705   O    0.72814   0.88440   0.82824   1.000
    O3706   O    0.72015   0.92920   0.85599   1.000
    O3707   O    0.75129   0.92565   0.85664   1.000
    O3708   O    0.29236   0.98857   0.85164   1.000
    O3709   O    0.20764   0.51143   0.85164   1.000
    O3710   O    0.79236   0.48857   0.85164   1.000
    O3711   O    0.70764   0.01143   0.85164   1.000
    O3712   O    0.29600   0.16365   0.83455   1.000
    O3713   O    0.20400   0.33635   0.83455   1.000
    O3714   O    0.79600   0.66365   0.83455   1.000
    O3715   O    0.70400   0.83635   0.83455   1.000
    O3716   O    0.82927   0.98514   0.85797   1.000
    O3717   O    0.17073   0.01486   0.85797   1.000
    O3718   O    0.67073   0.51485   0.85797   1.000
    O3719   O    0.32927   0.48514   0.85797   1.000
    O3720   O    0.17146   0.50183   0.85554   1.000
    O3721   O    0.32854   0.99817   0.85554   1.000
    O3722   O    0.67146   0.00183   0.85554   1.000
    O3723   O    0.82854   0.49817   0.85554   1.000
    O3724   O    0.32250   0.16340   0.85080   1.000
    O3725   O    0.17750   0.33660   0.85080   1.000
    O3726   O    0.82250   0.66340   0.85080   1.000
    O3727   O    0.67750   0.83660   0.85080   1.000
    O3728   O    0.41195   0.23340   0.85070   1.000
    O3729   O    0.58805   0.76660   0.85070   1.000
    O3730   O    0.91195   0.73340   0.85070   1.000
    O3731   O    0.08805   0.26660   0.85070   1.000
    O3732   O    0.00515   0.69290   0.84730   1.000
    O3733   O    0.99860   0.73175   0.86045   1.000
    O3734   O    0.49485   0.80710   0.84730   1.000
    O3735   O    0.50140   0.76825   0.86045   1.000
    O3736   O    0.99485   0.30710   0.84730   1.000
    O3737   O    0.00140   0.26825   0.86045   1.000
    O3738   O    0.50515   0.19290   0.84730   1.000
    O3739   O    0.49860   0.23175   0.86045   1.000
    O3740   O    0.81944   0.93469   0.86347   1.000
    O3741   O    0.68056   0.56530   0.86347   1.000
    O3742   O    0.31944   0.43470   0.86347   1.000
    O3743   O    0.18056   0.06530   0.86347   1.000
    O3744   O    0.10790   0.26965   0.85665   1.000
    O3745   O    0.89210   0.73035   0.85665   1.000
    O3746   O    0.60790   0.76965   0.85665   1.000
    O3747   O    0.39210   0.23035   0.85665   1.000
    O3748   O    0.50940   0.16705   0.87790   1.000
    O3749   O    0.49060   0.83295   0.87790   1.000
    O3750   O    0.00940   0.66705   0.87790   1.000
    O3751   O    0.99060   0.33295   0.87790   1.000
    O3752   O    0.09700   0.24740   0.86925   1.000
    O3753   O    0.09235   0.28360   0.88415   1.000
    O3754   O    0.90300   0.75260   0.86925   1.000
    O3755   O    0.90765   0.71640   0.88415   1.000
    O3756   O    0.59700   0.74740   0.86925   1.000
    O3757   O    0.59235   0.78360   0.88415   1.000
    O3758   O    0.40300   0.25260   0.86925   1.000
    O3759   O    0.40765   0.21640   0.88415   1.000
    O3760   O    0.90630   0.25800   0.87520   1.000
    O3761   O    0.91495   0.21480   0.88610   1.000
    O3762   O    0.09370   0.74200   0.87520   1.000
    O3763   O    0.08505   0.78520   0.88610   1.000
    O3764   O    0.59370   0.24200   0.87520   1.000
    O3765   O    0.58505   0.28520   0.88610   1.000
    O3766   O    0.40630   0.75800   0.87520   1.000
    O3767   O    0.41495   0.71480   0.88610   1.000
    O3768   O    0.27144   0.89730   0.86640   1.000
    O3769   O    0.22856   0.60270   0.86640   1.000
    O3770   O    0.77145   0.39730   0.86640   1.000
    O3771   O    0.72856   0.10270   0.86640   1.000
    O3772   O    0.42400   0.14415   0.88025   1.000
    O3773   O    0.07600   0.35585   0.88025   1.000
    O3774   O    0.92400   0.64415   0.88025   1.000
    O3775   O    0.57600   0.85585   0.88025   1.000
    O3776   O    0.74794   0.07674   0.90144   1.000
    O3777   O    0.75206   0.42326   0.90144   1.000
    O3778   O    0.25206   0.92326   0.90144   1.000
    O3779   O    0.24794   0.57674   0.90144   1.000
    O3780   O    0.70096   0.49551   0.87872   1.000
    O3781   O    0.72441   0.44546   0.90419   1.000
    O3782   O    0.29904   0.50450   0.87872   1.000
    O3783   O    0.27559   0.55454   0.90419   1.000
    O3784   O    0.20096   0.99550   0.87872   1.000
    O3785   O    0.22441   0.94546   0.90419   1.000
    O3786   O    0.79904   0.00450   0.87872   1.000
    O3787   O    0.77559   0.05454   0.90419   1.000
    O3788   O    0.08635   0.53950   0.87650   1.000
    O3789   O    0.91365   0.46050   0.87650   1.000
    O3790   O    0.58635   0.03950   0.87650   1.000
    O3791   O    0.41365   0.96050   0.87650   1.000
    O3792   O    0.31907   0.94412   0.89739   1.000
    O3793   O    0.32841   0.99167   0.90309   1.000
    O3794   O    0.29252   0.98122   0.90394   1.000
    O3795   O    0.18093   0.55588   0.89739   1.000
    O3796   O    0.17159   0.50833   0.90309   1.000
    O3797   O    0.20747   0.51878   0.90394   1.000
    O3798   O    0.81907   0.44412   0.89739   1.000
    O3799   O    0.82842   0.49167   0.90309   1.000
    O3800   O    0.79253   0.48122   0.90394   1.000
    O3801   O    0.68093   0.05588   0.89739   1.000
    O3802   O    0.67159   0.00833   0.90309   1.000
    O3803   O    0.70748   0.01878   0.90394   1.000
    O3804   O    0.24395   0.68705   0.89075   1.000
    O3805   O    0.25605   0.81295   0.89075   1.000
    O3806   O    0.75605   0.31295   0.89075   1.000
    O3807   O    0.74395   0.18705   0.89075   1.000
    O3808   O    0.43450   0.99615   0.87935   1.000
    O3809   O    0.56550   0.00385   0.87935   1.000
    O3810   O    0.93450   0.49615   0.87935   1.000
    O3811   O    0.06550   0.50385   0.87935   1.000
    O3812   O    0.49300   0.26390   0.88090   1.000
    O3813   O    0.49900   0.22995   0.89965   1.000
    O3814   O    0.50700   0.73610   0.88090   1.000
    O3815   O    0.50100   0.77005   0.89965   1.000
    O3816   O    0.99300   0.76390   0.88090   1.000
    O3817   O    0.99900   0.72995   0.89965   1.000
    O3818   O    0.00700   0.23610   0.88090   1.000
    O3819   O    0.00100   0.27005   0.89965   1.000
    O3820   O    0.09540   0.36080   0.88770   1.000
    O3821   O    0.90460   0.63920   0.88770   1.000
    O3822   O    0.59540   0.86080   0.88770   1.000
    O3823   O    0.40460   0.13920   0.88770   1.000
    O3824   O    0.78758   0.94859   0.88582   1.000
    O3825   O    0.82904   0.99144   0.90417   1.000
    O3826   O    0.81891   0.94094   0.91037   1.000
    O3827   O    0.71242   0.55140   0.88582   1.000
    O3828   O    0.67096   0.50855   0.90417   1.000
    O3829   O    0.68109   0.55905   0.91037   1.000
    O3830   O    0.28759   0.44860   0.88582   1.000
    O3831   O    0.32904   0.49145   0.90417   1.000
    O3832   O    0.31891   0.44095   0.91037   1.000
    O3833   O    0.21242   0.05141   0.88582   1.000
    O3834   O    0.17096   0.00855   0.90417   1.000
    O3835   O    0.18109   0.05905   0.91037   1.000
    O3836   O    0.80734   0.57640   0.88855   1.000
    O3837   O    0.69267   0.92360   0.88855   1.000
    O3838   O    0.19267   0.42360   0.88855   1.000
    O3839   O    0.30734   0.07640   0.88855   1.000
    O3840   O    0.50040   0.60750   0.90850   1.000
    O3841   O    0.06250   0.10350   0.89450   1.000
    O3842   O    0.43750   0.39650   0.89450   1.000
    O3843   O    0.00040   0.10750   0.90850   1.000
    O3844   O    0.99960   0.89250   0.90850   1.000
    O3845   O    0.93750   0.89650   0.89450   1.000
    O3846   O    0.49960   0.39250   0.90850   1.000
    O3847   O    0.56250   0.60350   0.89450   1.000
    O3848   O    0.08620   0.32805   0.89905   1.000
    O3849   O    0.08060   0.36360   0.90725   1.000
    O3850   O    0.91380   0.67195   0.89905   1.000
    O3851   O    0.91940   0.63640   0.90725   1.000
    O3852   O    0.58620   0.82805   0.89905   1.000
    O3853   O    0.58060   0.86360   0.90725   1.000
    O3854   O    0.41380   0.17195   0.89905   1.000
    O3855   O    0.41940   0.13640   0.90725   1.000
    O3856   O    0.50575   0.18955   0.91040   1.000
    O3857   O    0.49425   0.81045   0.91040   1.000
    O3858   O    0.00575   0.68955   0.91040   1.000
    O3859   O    0.99425   0.31045   0.91040   1.000
    O3860   O    0.76735   0.16685   0.91345   1.000
    O3861   O    0.73265   0.33315   0.91345   1.000
    O3862   O    0.26735   0.66685   0.91345   1.000
    O3863   O    0.23265   0.83315   0.91345   1.000
    O3864   O    0.58465   0.79250   0.92675   1.000
    O3865   O    0.41535   0.20750   0.92675   1.000
    O3866   O    0.91535   0.70750   0.92675   1.000
    O3867   O    0.08465   0.29250   0.92675   1.000
    O3868   O    0.67911   0.10175   0.93450   1.000
    O3869   O    0.82090   0.39825   0.93450   1.000
    O3870   O    0.17911   0.60175   0.93450   1.000
    O3871   O    0.32089   0.89825   0.93450   1.000
    O3872   O    0.50155   0.21740   0.94535   1.000
    O3873   O    0.49845   0.78260   0.94535   1.000
    O3874   O    0.00155   0.71740   0.94535   1.000
    O3875   O    0.99845   0.28260   0.94535   1.000
    O3876   O    0.73002   0.39116   0.92849   1.000
    O3877   O    0.76998   0.10884   0.92849   1.000
    O3878   O    0.26998   0.60884   0.92849   1.000
    O3879   O    0.23002   0.89116   0.92849   1.000
    O3880   O    0.84626   0.03475   0.93680   1.000
    O3881   O    0.15374   0.96525   0.93680   1.000
    O3882   O    0.34626   0.53475   0.93680   1.000
    O3883   O    0.65374   0.46525   0.93680   1.000
    O3884   O    0.17770   0.35030   0.94380   1.000
    O3885   O    0.32230   0.14970   0.94380   1.000
    O3886   O    0.82230   0.64970   0.94380   1.000
    O3887   O    0.67770   0.85030   0.94380   1.000
    O3888   O    0.15461   0.47965   0.94760   1.000
    O3889   O    0.65461   0.97965   0.94760   1.000
    O3890   O    0.84539   0.52035   0.94760   1.000
    O3891   O    0.34539   0.02035   0.94760   1.000
    O3892   O    0.23103   0.47806   0.94111   1.000
    O3893   O    0.76897   0.52194   0.94111   1.000
    O3894   O    0.73104   0.97806   0.94111   1.000
    O3895   O    0.26897   0.02195   0.94111   1.000
    O3896   O    0.77372   0.02999   0.94299   1.000
    O3897   O    0.72628   0.47001   0.94299   1.000
    O3898   O    0.27372   0.52999   0.94299   1.000
    O3899   O    0.22629   0.97001   0.94299   1.000
    O3900   O    0.18037   0.09805   0.95395   1.000
    O3901   O    0.81963   0.90195   0.95395   1.000
    O3902   O    0.31963   0.40195   0.95395   1.000
    O3903   O    0.68037   0.59805   0.95395   1.000
    O3904   O    0.72200   0.79975   0.94040   1.000
    O3905   O    0.72462   0.84245   0.94855   1.000
    O3906   O    0.77800   0.70025   0.94040   1.000
    O3907   O    0.77538   0.65755   0.94855   1.000
    O3908   O    0.22200   0.29975   0.94040   1.000
    O3909   O    0.22462   0.34245   0.94855   1.000
    O3910   O    0.27800   0.20025   0.94040   1.000
    O3911   O    0.27538   0.15755   0.94855   1.000
    O3912   O    0.30420   0.22510   0.95050   1.000
    O3913   O    0.69580   0.77490   0.95050   1.000
    O3914   O    0.80420   0.72510   0.95050   1.000
    O3915   O    0.19580   0.27490   0.95050   1.000
    O3916   O    0.08325   0.26505   0.95090   1.000
    O3917   O    0.07610   0.29485   0.96500   1.000
    O3918   O    0.41675   0.23495   0.95090   1.000
    O3919   O    0.42390   0.20515   0.96500   1.000
    O3920   O    0.91675   0.73495   0.95090   1.000
    O3921   O    0.92390   0.70515   0.96500   1.000
    O3922   O    0.83116   0.06785   0.95295   1.000
    O3923   O    0.86045   0.06690   0.95765   1.000
    O3924   O    0.16884   0.93215   0.95295   1.000
    O3925   O    0.13955   0.93310   0.95765   1.000
    O3926   O    0.33116   0.56785   0.95295   1.000
    O3927   O    0.36045   0.56690   0.95765   1.000
    O3928   O    0.66884   0.43215   0.95295   1.000
    O3929   O    0.63955   0.43310   0.95765   1.000
    O3930   O    0.58325   0.76505   0.95090   1.000
    O3931   O    0.57610   0.79485   0.96500   1.000
    O3932   O    0.60815   0.42930   0.95815   1.000
    O3933   O    0.57995   0.42415   0.96050   1.000
    O3934   O    0.39185   0.57070   0.95815   1.000
    O3935   O    0.42005   0.57585   0.96050   1.000
    O3936   O    0.10815   0.92930   0.95815   1.000
    O3937   O    0.07995   0.92415   0.96050   1.000
    O3938   O    0.89185   0.07070   0.95815   1.000
    O3939   O    0.92005   0.07585   0.96050   1.000
    O3940   O    0.70219   0.11515   0.95545   1.000
    O3941   O    0.67565   0.13000   0.96720   1.000
    O3942   O    0.79781   0.38485   0.95545   1.000
    O3943   O    0.82435   0.37000   0.96720   1.000
    O3944   O    0.20219   0.61515   0.95545   1.000
    O3945   O    0.17565   0.63000   0.96720   1.000
    O3946   O    0.29781   0.88485   0.95545   1.000
    O3947   O    0.32435   0.87000   0.96720   1.000
    O3948   O    0.75902   0.91765   0.96596   1.000
    O3949   O    0.74099   0.58235   0.96596   1.000
    O3950   O    0.25901   0.41766   0.96596   1.000
    O3951   O    0.24099   0.08235   0.96596   1.000
    O3952   O    0.70881   0.50995   0.96660   1.000
    O3953   O    0.79119   0.99005   0.96660   1.000
    O3954   O    0.29119   0.49005   0.96660   1.000
    O3955   O    0.20881   0.00995   0.96660   1.000
    O3956   O    0.70372   0.85365   0.95910   1.000
    O3957   O    0.79628   0.64635   0.95910   1.000
    O3958   O    0.29628   0.14635   0.95910   1.000
    O3959   O    0.20372   0.35365   0.95910   1.000
    O3960   O    0.97825   0.41835   0.96390   1.000
    O3961   O    0.02175   0.58165   0.96390   1.000
    O3962   O    0.47825   0.91835   0.96390   1.000
    O3963   O    0.52175   0.08165   0.96390   1.000
    O3964   O    0.67002   0.95625   0.97400   1.000
    O3965   O    0.64133   0.95770   0.97775   1.000
    O3966   O    0.32998   0.04375   0.97400   1.000
    O3967   O    0.35867   0.04230   0.97775   1.000
    O3968   O    0.82998   0.54375   0.97400   1.000
    O3969   O    0.85867   0.54230   0.97775   1.000
    O3970   O    0.17001   0.45625   0.97400   1.000
    O3971   O    0.14133   0.45770   0.97775   1.000
    O3972   O    0.29613   0.39240   0.97565   1.000
    O3973   O    0.70387   0.60760   0.97565   1.000
    O3974   O    0.79613   0.89240   0.97565   1.000
    O3975   O    0.20387   0.10760   0.97565   1.000
    O3976   O    0.50320   0.75600   0.97820   1.000
    O3977   O    0.49507   0.79875   0.98415   1.000
    O3978   O    0.00320   0.25600   0.97820   1.000
    O3979   O    0.99508   0.29875   0.98415   1.000
    O3980   O    0.49680   0.24400   0.97820   1.000
    O3981   O    0.50493   0.20125   0.98415   1.000
    O3982   O    0.99680   0.74400   0.97820   1.000
    O3983   O    0.00493   0.70125   0.98415   1.000
    O3984   O    0.88980   0.54095   0.98165   1.000
    O3985   O    0.11020   0.45905   0.98165   1.000
    O3986   O    0.61020   0.95905   0.98165   1.000
    O3987   O    0.38980   0.04095   0.98165   1.000
    O3988   O    0.12215   0.63575   0.98255   1.000
    O3989   O    0.87785   0.36425   0.98255   1.000
    O3990   O    0.37785   0.86425   0.98255   1.000
    O3991   O    0.62215   0.13575   0.98255   1.000
    O3992   O    0.87515   0.85385   0.98825   1.000
    O3993   O    0.62485   0.64615   0.98825   1.000
    O3994   O    0.37515   0.35385   0.98825   1.000
    O3995   O    0.12485   0.14615   0.98825   1.000
    O3996   O    0.64760   0.14550   0.98710   1.000
    O3997   O    0.85240   0.35450   0.98710   1.000
    O3998   O    0.14760   0.64550   0.98710   1.000
    O3999   O    0.35240   0.85450   0.98710   1.000
    O4000   O    0.97454   0.29521   0.59155   1.000
    O4001   O    0.99881   0.18485   0.66971   1.000
    O4002   O    0.00219   0.31741   0.58880   1.000
    O4003   O    0.03857   0.30368   0.62269   1.000
    O4004   O    0.79048   0.05226   0.79660   1.000
    O4005   O    0.78945   0.05580   0.46666   1.000
    O4006   O    0.20951   0.42541   0.44579   1.000
    O4007   O    0.00948   0.34234   0.69709   1.000
    O4008   O    0.98923   0.21620   0.70141   1.000
    O4009   O    0.95283   0.22995   0.66752   1.000
    O4010   O    0.21044   0.42285   0.80884   1.000
    O4011   O    0.98959   0.29070   0.23791   1.000
    O4012   O    0.02190   0.15205   0.70466   1.000
    O4013   O    0.98965   0.28351   0.52180   1.000
    O4014   O    0.00602   0.29184   0.68269   1.000
    O4015   O    0.01870   0.21150   0.57574   1.000
    O4016   O    0.02995   0.18840   0.66906   1.000
    O4017   O    0.05351   0.22913   0.63189   1.000
    O4018   O    0.95274   0.21974   0.59737   1.000
    O4019   O    0.98903   0.19680   0.56819   1.000
    O4020   O    0.99038   0.14585   0.56644   1.000
    O4021   O    0.02546   0.70479   0.59155   1.000
    O4022   O    0.22454   0.95479   0.84155   1.000
    O4023   O    0.27546   0.54521   0.84155   1.000
    O4024   O    0.47454   0.29521   0.09155   1.000
    O4025   O    0.52546   0.70479   0.09155   1.000
    O4026   O    0.72454   0.95479   0.34155   1.000
    O4027   O    0.77546   0.54521   0.34155   1.000
    O4028   O    0.97454   0.79521   0.09155   1.000
    O4029   O    0.02546   0.20479   0.09155   1.000
    O4030   O    0.22454   0.45479   0.34155   1.000
    O4031   O    0.27546   0.04521   0.34155   1.000
    O4032   O    0.47454   0.79521   0.59155   1.000
    O4033   O    0.52546   0.20479   0.59155   1.000
    O4034   O    0.72454   0.45479   0.84155   1.000
    O4035   O    0.77546   0.04521   0.84155   1.000
    O4036   O    0.00119   0.81515   0.66971   1.000
    O4037   O    0.24881   0.06515   0.91971   1.000
    O4038   O    0.25119   0.43486   0.91971   1.000
    O4039   O    0.49881   0.18486   0.16971   1.000
    O4040   O    0.50119   0.81515   0.16971   1.000
    O4041   O    0.74881   0.06515   0.41971   1.000
    O4042   O    0.75119   0.43485   0.41971   1.000
    O4043   O    0.99881   0.68486   0.16971   1.000
    O4044   O    0.00119   0.31515   0.16971   1.000
    O4045   O    0.24881   0.56515   0.41971   1.000
    O4046   O    0.25119   0.93486   0.41971   1.000
    O4047   O    0.49881   0.68486   0.66971   1.000
    O4048   O    0.50119   0.31515   0.66971   1.000
    O4049   O    0.74881   0.56515   0.91971   1.000
    O4050   O    0.75119   0.93485   0.91971   1.000
    O4051   O    0.99780   0.68259   0.58880   1.000
    O4052   O    0.96143   0.69632   0.62269   1.000
    O4053   O    0.25219   0.93259   0.83880   1.000
    O4054   O    0.28857   0.94632   0.87269   1.000
    O4055   O    0.24781   0.56741   0.83880   1.000
    O4056   O    0.21143   0.55368   0.87269   1.000
    O4057   O    0.50220   0.31741   0.08880   1.000
    O4058   O    0.53857   0.30368   0.12269   1.000
    O4059   O    0.49781   0.68259   0.08880   1.000
    O4060   O    0.46143   0.69632   0.12269   1.000
    O4061   O    0.75219   0.93259   0.33880   1.000
    O4062   O    0.78857   0.94632   0.37269   1.000
    O4063   O    0.74781   0.56741   0.33880   1.000
    O4064   O    0.71143   0.55368   0.37269   1.000
    O4065   O    0.00220   0.81741   0.08880   1.000
    O4066   O    0.03857   0.80368   0.12269   1.000
    O4067   O    0.99780   0.18259   0.08880   1.000
    O4068   O    0.96143   0.19632   0.12269   1.000
    O4069   O    0.25219   0.43259   0.33880   1.000
    O4070   O    0.28857   0.44632   0.37269   1.000
    O4071   O    0.24780   0.06741   0.33880   1.000
    O4072   O    0.21143   0.05368   0.37269   1.000
    O4073   O    0.50220   0.81741   0.58880   1.000
    O4074   O    0.53857   0.80368   0.62269   1.000
    O4075   O    0.49781   0.18259   0.58880   1.000
    O4076   O    0.46143   0.19632   0.62269   1.000
    O4077   O    0.75219   0.43259   0.83880   1.000
    O4078   O    0.78857   0.44632   0.87269   1.000
    O4079   O    0.74781   0.06741   0.83880   1.000
    O4080   O    0.71143   0.05368   0.87269   1.000
    O4081   O    0.20952   0.94774   0.79660   1.000
    O4082   O    0.04048   0.19774   0.04660   1.000
    O4083   O    0.45952   0.30226   0.04660   1.000
    O4084   O    0.29048   0.05226   0.29660   1.000
    O4085   O    0.70952   0.94774   0.29660   1.000
    O4086   O    0.54048   0.19774   0.54660   1.000
    O4087   O    0.95952   0.30226   0.54660   1.000
    O4088   O    0.79048   0.55226   0.29660   1.000
    O4089   O    0.20952   0.44774   0.29660   1.000
    O4090   O    0.04048   0.69774   0.54660   1.000
    O4091   O    0.45952   0.80226   0.54660   1.000
    O4092   O    0.29048   0.55226   0.79660   1.000
    O4093   O    0.70952   0.44774   0.79660   1.000
    O4094   O    0.54048   0.69774   0.04660   1.000
    O4095   O    0.95952   0.80226   0.04660   1.000
    O4096   O    0.21055   0.94420   0.46666   1.000
    O4097   O    0.03945   0.19420   0.71666   1.000
    O4098   O    0.46055   0.30579   0.71666   1.000
    O4099   O    0.28945   0.05580   0.96666   1.000
    O4100   O    0.71055   0.94420   0.96666   1.000
    O4101   O    0.53945   0.19420   0.21666   1.000
    O4102   O    0.96055   0.30579   0.21666   1.000
    O4103   O    0.78945   0.55579   0.96666   1.000
    O4104   O    0.21055   0.44421   0.96666   1.000
    O4105   O    0.03945   0.69420   0.21666   1.000
    O4106   O    0.46055   0.80580   0.21666   1.000
    O4107   O    0.28945   0.55580   0.46666   1.000
    O4108   O    0.71055   0.44420   0.46666   1.000
    O4109   O    0.53945   0.69420   0.71666   1.000
    O4110   O    0.96055   0.80580   0.71666   1.000
    O4111   O    0.79049   0.57459   0.44579   1.000
    O4112   O    0.45951   0.82459   0.69579   1.000
    O4113   O    0.04049   0.67541   0.69579   1.000
    O4114   O    0.70951   0.42541   0.94579   1.000
    O4115   O    0.29049   0.57459   0.94579   1.000
    O4116   O    0.95951   0.82459   0.19579   1.000
    O4117   O    0.54049   0.67541   0.19579   1.000
    O4118   O    0.20951   0.92541   0.94579   1.000
    O4119   O    0.79049   0.07459   0.94579   1.000
    O4120   O    0.45951   0.32459   0.19579   1.000
    O4121   O    0.04049   0.17541   0.19579   1.000
    O4122   O    0.70951   0.92541   0.44579   1.000
    O4123   O    0.29049   0.07459   0.44579   1.000
    O4124   O    0.95951   0.32459   0.69579   1.000
    O4125   O    0.54049   0.17541   0.69579   1.000
    O4126   O    0.99052   0.65766   0.69709   1.000
    O4127   O    0.25948   0.90766   0.94709   1.000
    O4128   O    0.24052   0.59234   0.94709   1.000
    O4129   O    0.50948   0.34234   0.19709   1.000
    O4130   O    0.49052   0.65766   0.19709   1.000
    O4131   O    0.75948   0.90766   0.44709   1.000
    O4132   O    0.74052   0.59234   0.44709   1.000
    O4133   O    0.00948   0.84234   0.19709   1.000
    O4134   O    0.99052   0.15766   0.19709   1.000
    O4135   O    0.25948   0.40766   0.44709   1.000
    O4136   O    0.24052   0.09234   0.44709   1.000
    O4137   O    0.50948   0.84234   0.69709   1.000
    O4138   O    0.49052   0.15766   0.69709   1.000
    O4139   O    0.75948   0.40766   0.94709   1.000
    O4140   O    0.74052   0.09234   0.94709   1.000
    O4141   O    0.01077   0.78380   0.70141   1.000
    O4142   O    0.04717   0.77006   0.66752   1.000
    O4143   O    0.23923   0.03379   0.95141   1.000
    O4144   O    0.20284   0.02005   0.91752   1.000
    O4145   O    0.26077   0.46621   0.95141   1.000
    O4146   O    0.29717   0.47995   0.91752   1.000
    O4147   O    0.48923   0.21621   0.20141   1.000
    O4148   O    0.45283   0.22995   0.16752   1.000
    O4149   O    0.51077   0.78380   0.20141   1.000
    O4150   O    0.54717   0.77006   0.16752   1.000
    O4151   O    0.73923   0.03379   0.45141   1.000
    O4152   O    0.70283   0.02005   0.41752   1.000
    O4153   O    0.76077   0.46620   0.45141   1.000
    O4154   O    0.79717   0.47995   0.41752   1.000
    O4155   O    0.98923   0.71620   0.20141   1.000
    O4156   O    0.95283   0.72995   0.16752   1.000
    O4157   O    0.01077   0.28380   0.20141   1.000
    O4158   O    0.04717   0.27005   0.16752   1.000
    O4159   O    0.23923   0.53380   0.45141   1.000
    O4160   O    0.20283   0.52006   0.41752   1.000
    O4161   O    0.26077   0.96620   0.45141   1.000
    O4162   O    0.29717   0.97995   0.41752   1.000
    O4163   O    0.48923   0.71620   0.70141   1.000
    O4164   O    0.45283   0.72995   0.66752   1.000
    O4165   O    0.51077   0.28380   0.70141   1.000
    O4166   O    0.54717   0.27005   0.66752   1.000
    O4167   O    0.73923   0.53380   0.95141   1.000
    O4168   O    0.70283   0.52005   0.91752   1.000
    O4169   O    0.76077   0.96620   0.95141   1.000
    O4170   O    0.79717   0.97994   0.91752   1.000
    O4171   O    0.78956   0.57715   0.80884   1.000
    O4172   O    0.46044   0.82715   0.05884   1.000
    O4173   O    0.03956   0.67285   0.05884   1.000
    O4174   O    0.71044   0.42285   0.30884   1.000
    O4175   O    0.28956   0.57715   0.30884   1.000
    O4176   O    0.96044   0.82715   0.55884   1.000
    O4177   O    0.53956   0.67285   0.55884   1.000
    O4178   O    0.21044   0.92285   0.30884   1.000
    O4179   O    0.78956   0.07715   0.30884   1.000
    O4180   O    0.46044   0.32715   0.55884   1.000
    O4181   O    0.03956   0.17285   0.55884   1.000
    O4182   O    0.71044   0.92285   0.80884   1.000
    O4183   O    0.28956   0.07715   0.80884   1.000
    O4184   O    0.96044   0.32715   0.05884   1.000
    O4185   O    0.53956   0.17285   0.05884   1.000
    O4186   O    0.01041   0.70931   0.23791   1.000
    O4187   O    0.23959   0.95931   0.48791   1.000
    O4188   O    0.26042   0.54070   0.48791   1.000
    O4189   O    0.48959   0.29069   0.73791   1.000
    O4190   O    0.51042   0.70931   0.73791   1.000
    O4191   O    0.73958   0.95930   0.98791   1.000
    O4192   O    0.76042   0.54070   0.98791   1.000
    O4193   O    0.98959   0.79070   0.73791   1.000
    O4194   O    0.01041   0.20930   0.73791   1.000
    O4195   O    0.23959   0.45931   0.98791   1.000
    O4196   O    0.26042   0.04069   0.98791   1.000
    O4197   O    0.48959   0.79070   0.23791   1.000
    O4198   O    0.51042   0.20930   0.23791   1.000
    O4199   O    0.73958   0.45930   0.48791   1.000
    O4200   O    0.76042   0.04069   0.48791   1.000
    O4201   O    0.97810   0.84795   0.70466   1.000
    O4202   O    0.27189   0.09794   0.95466   1.000
    O4203   O    0.22810   0.40206   0.95466   1.000
    O4204   O    0.52190   0.15206   0.20466   1.000
    O4205   O    0.47810   0.84795   0.20466   1.000
    O4206   O    0.77190   0.09795   0.45466   1.000
    O4207   O    0.72811   0.40205   0.45466   1.000
    O4208   O    0.02189   0.65206   0.20466   1.000
    O4209   O    0.97810   0.34795   0.20466   1.000
    O4210   O    0.27190   0.59795   0.45466   1.000
    O4211   O    0.22810   0.90206   0.45466   1.000
    O4212   O    0.52190   0.65206   0.70466   1.000
    O4213   O    0.47810   0.34794   0.70466   1.000
    O4214   O    0.77190   0.59794   0.95466   1.000
    O4215   O    0.72811   0.90205   0.95466   1.000
    O4216   O    0.01035   0.71649   0.52180   1.000
    O4217   O    0.23965   0.96649   0.77180   1.000
    O4218   O    0.26035   0.53351   0.77180   1.000
    O4219   O    0.48965   0.28351   0.02180   1.000
    O4220   O    0.51035   0.71649   0.02180   1.000
    O4221   O    0.73965   0.96649   0.27180   1.000
    O4222   O    0.76035   0.53351   0.27180   1.000
    O4223   O    0.98965   0.78351   0.02180   1.000
    O4224   O    0.01035   0.21649   0.02180   1.000
    O4225   O    0.23965   0.46649   0.27180   1.000
    O4226   O    0.26035   0.03351   0.27180   1.000
    O4227   O    0.48965   0.78351   0.52180   1.000
    O4228   O    0.51035   0.21649   0.52180   1.000
    O4229   O    0.73965   0.46649   0.77180   1.000
    O4230   O    0.76035   0.03351   0.77180   1.000
    O4231   O    0.99398   0.70816   0.68269   1.000
    O4232   O    0.25602   0.95816   0.93269   1.000
    O4233   O    0.24398   0.54184   0.93269   1.000
    O4234   O    0.50602   0.29184   0.18269   1.000
    O4235   O    0.49398   0.70816   0.18269   1.000
    O4236   O    0.75602   0.95816   0.43269   1.000
    O4237   O    0.74398   0.54184   0.43269   1.000
    O4238   O    0.00602   0.79184   0.18269   1.000
    O4239   O    0.99398   0.20816   0.18269   1.000
    O4240   O    0.25602   0.45816   0.43269   1.000
    O4241   O    0.24398   0.04184   0.43269   1.000
    O4242   O    0.50602   0.79184   0.68269   1.000
    O4243   O    0.49398   0.20816   0.68269   1.000
    O4244   O    0.75602   0.45816   0.93269   1.000
    O4245   O    0.74398   0.04184   0.93269   1.000
    O4246   O    0.98130   0.78850   0.57574   1.000
    O4247   O    0.26870   0.03850   0.82574   1.000
    O4248   O    0.23130   0.46150   0.82574   1.000
    O4249   O    0.51870   0.21150   0.07574   1.000
    O4250   O    0.48130   0.78850   0.07574   1.000
    O4251   O    0.76870   0.03850   0.32574   1.000
    O4252   O    0.73130   0.46150   0.32574   1.000
    O4253   O    0.01870   0.71150   0.07574   1.000
    O4254   O    0.98130   0.28850   0.07574   1.000
    O4255   O    0.26870   0.53850   0.32574   1.000
    O4256   O    0.23130   0.96150   0.32574   1.000
    O4257   O    0.51870   0.71150   0.57574   1.000
    O4258   O    0.48130   0.28850   0.57574   1.000
    O4259   O    0.76870   0.53850   0.82574   1.000
    O4260   O    0.73130   0.96150   0.82574   1.000
    O4261   O    0.97005   0.81160   0.66906   1.000
    O4262   O    0.94649   0.77087   0.63189   1.000
    O4263   O    0.27995   0.06160   0.91906   1.000
    O4264   O    0.30351   0.02087   0.88189   1.000
    O4265   O    0.22005   0.43841   0.91906   1.000
    O4266   O    0.19649   0.47913   0.88189   1.000
    O4267   O    0.52995   0.18840   0.16906   1.000
    O4268   O    0.55351   0.22913   0.13189   1.000
    O4269   O    0.47005   0.81160   0.16906   1.000
    O4270   O    0.44649   0.77087   0.13189   1.000
    O4271   O    0.77995   0.06160   0.41906   1.000
    O4272   O    0.80351   0.02087   0.38189   1.000
    O4273   O    0.72005   0.43841   0.41906   1.000
    O4274   O    0.69649   0.47913   0.38189   1.000
    O4275   O    0.02995   0.68841   0.16906   1.000
    O4276   O    0.05351   0.72913   0.13189   1.000
    O4277   O    0.97005   0.31160   0.16906   1.000
    O4278   O    0.94649   0.27087   0.13189   1.000
    O4279   O    0.27995   0.56159   0.41906   1.000
    O4280   O    0.30351   0.52087   0.38189   1.000
    O4281   O    0.22005   0.93841   0.41906   1.000
    O4282   O    0.19649   0.97913   0.38189   1.000
    O4283   O    0.52995   0.68841   0.66906   1.000
    O4284   O    0.55351   0.72913   0.63189   1.000
    O4285   O    0.47005   0.31160   0.66906   1.000
    O4286   O    0.44649   0.27087   0.63189   1.000
    O4287   O    0.77995   0.56159   0.91906   1.000
    O4288   O    0.80351   0.52087   0.88189   1.000
    O4289   O    0.72005   0.93840   0.91906   1.000
    O4290   O    0.69649   0.97913   0.88189   1.000
    O4291   O    0.04727   0.78026   0.59737   1.000
    O4292   O    0.01098   0.80320   0.56819   1.000
    O4293   O    0.20274   0.03025   0.84737   1.000
    O4294   O    0.23903   0.05320   0.81819   1.000
    O4295   O    0.29727   0.46975   0.84737   1.000
    O4296   O    0.26098   0.44680   0.81819   1.000
    O4297   O    0.45274   0.21975   0.09737   1.000
    O4298   O    0.48903   0.19680   0.06819   1.000
    O4299   O    0.54727   0.78026   0.09737   1.000
    O4300   O    0.51098   0.80320   0.06819   1.000
    O4301   O    0.70274   0.03025   0.34737   1.000
    O4302   O    0.73903   0.05320   0.31819   1.000
    O4303   O    0.79727   0.46975   0.34737   1.000
    O4304   O    0.76098   0.44680   0.31819   1.000
    O4305   O    0.95274   0.71975   0.09737   1.000
    O4306   O    0.98903   0.69680   0.06819   1.000
    O4307   O    0.04727   0.28025   0.09737   1.000
    O4308   O    0.01098   0.30320   0.06819   1.000
    O4309   O    0.20273   0.53026   0.34737   1.000
    O4310   O    0.23902   0.55320   0.31819   1.000
    O4311   O    0.29727   0.96975   0.34737   1.000
    O4312   O    0.26098   0.94680   0.31819   1.000
    O4313   O    0.45273   0.71975   0.59737   1.000
    O4314   O    0.48902   0.69680   0.56819   1.000
    O4315   O    0.54727   0.28025   0.59737   1.000
    O4316   O    0.51098   0.30320   0.56819   1.000
    O4317   O    0.70274   0.53025   0.84737   1.000
    O4318   O    0.73903   0.55320   0.81819   1.000
    O4319   O    0.79727   0.96974   0.84737   1.000
    O4320   O    0.76098   0.94680   0.81819   1.000
    O4321   O    0.00962   0.85415   0.56644   1.000
    O4322   O    0.24038   0.10415   0.81644   1.000
    O4323   O    0.25962   0.39585   0.81644   1.000
    O4324   O    0.49038   0.14585   0.06644   1.000
    O4325   O    0.50962   0.85415   0.06644   1.000
    O4326   O    0.74038   0.10415   0.31644   1.000
    O4327   O    0.75962   0.39585   0.31644   1.000
    O4328   O    0.99038   0.64585   0.06644   1.000
    O4329   O    0.00962   0.35415   0.06644   1.000
    O4330   O    0.24038   0.60415   0.31644   1.000
    O4331   O    0.25962   0.89585   0.31644   1.000
    O4332   O    0.49038   0.64585   0.56644   1.000
    O4333   O    0.50962   0.35415   0.56644   1.000
    O4334   O    0.74038   0.60415   0.81644   1.000
    O4335   O    0.75962   0.89585   0.81644   1.000
loop_
    _geom_bond_atom_site_label_1
    _geom_bond_atom_site_label_2
    _geom_bond_distance
    _geom_bond_site_symmetry_2
    _ccdc_geom_bond_type
    C697   O2000     0.66080      .   S
    C1282  O2000     0.66080      .   S
    C697   O2001     0.74639  1_554   S
    C757   O2001     0.74639      .   S
    C697   O2002     0.69229  1_554   S
    C802   O2002     0.69229      .   S
    C698   O2003     0.66080      .   S
    C1283  O2003     0.66080      .   S
    C698   O2004     0.74639  1_554   S
    C758   O2004     0.74639      .   S
    C698   O2005     0.69229  1_554   S
    C803   O2005     0.69229      .   S
    C709   O2006     0.66080      .   S
    C1294  O2006     0.66080      .   S
    C709   O2007     0.74639  1_554   S
    C769   O2007     0.74639      .   S
    C709   O2008     0.69229  1_554   S
    C814   O2008     0.69229      .   S
    C710   O2009     0.66080      .   S
    C1295  O2009     0.66080      .   S
    C710   O2010     0.74639  1_554   S
    C770   O2010     0.74639      .   S
    C710   O2011     0.69229  1_554   S
    C815   O2011     0.69229      .   S
    C864   O2012     0.71020      .   S
    C879   O2012     0.71020      .   S
    C864   O2013     0.71013  1_554   S
    C849   O2013     0.71013      .   S
    C865   O2014     0.71020      .   S
    C880   O2014     0.71020      .   S
    C865   O2015     0.71013  1_554   S
    C850   O2015     0.71013      .   S
    C868   O2016     0.71020      .   S
    C883   O2016     0.71020      .   S
    C868   O2017     0.71013  1_554   S
    C853   O2017     0.71013      .   S
    C869   O2018     0.71020      .   S
    C884   O2018     0.71020      .   S
    C869   O2019     0.71013  1_554   S
    C854   O2019     0.71013      .   S
    C1003  O2020     0.69020      .   S
    C1303  O2020     0.69020      .   S
    C1003  O2021     0.47464      .   S
    C1018  O2021     0.47464      .   S
    C1003  O2022     0.68565  1_554   S
    C658   O2022     0.68565      .   S
    C1000  O2023     0.69020      .   S
    C1300  O2023     0.69020      .   S
    C1000  O2024     0.47464      .   S
    C1015  O2024     0.47464      .   S
    C1000  O2025     0.68565  1_554   S
    C655   O2025     0.68565      .   S
    C999   O2026     0.69020      .   S
    C1299  O2026     0.69020      .   S
    C999   O2027     0.47464      .   S
    C1014  O2027     0.47464      .   S
    C999   O2028     0.68565  1_554   S
    C654   O2028     0.68565      .   S
    C1004  O2029     0.69020      .   S
    C1304  O2029     0.69020      .   S
    C1004  O2030     0.47464      .   S
    C1019  O2030     0.47464      .   S
    C1004  O2031     0.68565  1_554   S
    C659   O2031     0.68565      .   S
    C1299  O2032     0.73722      .   S
    C1149  O2032     0.73722      .   S
    C1299  O2033     0.68334  1_554   S
    C1179  O2033     0.68334      .   S
    C1300  O2034     0.73722      .   S
    C1150  O2034     0.73722      .   S
    C1300  O2035     0.68334  1_554   S
    C1180  O2035     0.68334      .   S
    C1303  O2036     0.73722      .   S
    C1153  O2036     0.73722      .   S
    C1303  O2037     0.68334  1_554   S
    C1183  O2037     0.68334      .   S
    C1304  O2038     0.73722      .   S
    C1154  O2038     0.73722      .   S
    C1304  O2039     0.68334  1_554   S
    C1184  O2039     0.68334      .   S
    C1888  O2040     0.57252      .   S
    C1971  O2040     0.57252      .   S
    C1888  O2041     0.57252      .   S
    C1972  O2041     0.57252      .   S
    C1894  O2042     0.57252      .   S
    C1983  O2042     0.57252      .   S
    C1894  O2043     0.57252      .   S
    C1984  O2043     0.57252      .   S
    C1971  O2044     0.66089      .   S
    C1874  O2044     0.66089      .   S
    C1972  O2045     0.66089      .   S
    C1875  O2045     0.66089      .   S
    C1983  O2046     0.66089      .   S
    C1886  O2046     0.66089      .   S
    C1984  O2047     0.66089      .   S
    C1887  O2047     0.66089      .   S
    C356   O2048     0.64194      .   S
    C1331  O2048     0.64194      .   S
    C356   O2049     1.08709  1_554   S
    C185   O2049     1.08709      .   S
    C357   O2050     0.64194      .   S
    C1332  O2050     0.64194      .   S
    C357   O2051     1.08709  1_554   S
    C184   O2051     1.08709      .   S
    C360   O2052     0.64194      .   S
    C1335  O2052     0.64194      .   S
    C360   O2053     1.08709  1_554   S
    C173   O2053     1.08709      .   S
    C361   O2054     0.64194      .   S
    C1336  O2054     0.64194      .   S
    C361   O2055     1.08709  1_554   S
    C172   O2055     1.08709      .   S
    C1027  O2056     0.65843      .   S
    C982   O2056     0.65843      .   S
    C1027  O2057     0.66232  1_554   S
    C682   O2057     0.66232      .   S
    C1028  O2058     0.65843      .   S
    C983   O2058     0.65843      .   S
    C1028  O2059     0.66232  1_554   S
    C683   O2059     0.66232      .   S
    C1039  O2060     0.65843      .   S
    C994   O2060     0.65843      .   S
    C1039  O2061     0.66232  1_554   S
    C694   O2061     0.66232      .   S
    C1040  O2062     0.65843      .   S
    C995   O2062     0.65843      .   S
    C1040  O2063     0.66232  1_554   S
    C695   O2063     0.66232      .   S
    C719   O2064     0.63049      .   S
    C1154  O2064     0.63049      .   S
    C719   O2065     1.12249      .   S
    C149   O2065     1.12249  1_455   S
    C718   O2066     0.63049      .   S
    C1153  O2066     0.63049      .   S
    C718   O2067     1.12249      .   S
    C148   O2067     1.12249  1_655   S
    C715   O2068     0.63049      .   S
    C1150  O2068     0.63049      .   S
    C715   O2069     1.12249      .   S
    C145   O2069     1.12249      .   S
    C714   O2070     0.63049      .   S
    C1149  O2070     0.63049      .   S
    C714   O2071     1.12249      .   S
    C144   O2071     1.12249      .   S
    C541   O2072     0.63920      .   S
    C1336  O2072     0.63920  1_565   S
    C540   O2073     0.63920      .   S
    C1335  O2073     0.63920      .   S
    C537   O2074     0.63920      .   S
    C1332  O2074     0.63920      .   S
    C536   O2075     0.63920      .   S
    C1331  O2075     0.63920  1_545   S
    C967   O2076     0.65538      .   S
    C982   O2076     0.65538      .   S
    C967   O2077     0.74991      .   S
    C667   O2077     0.74991      .   S
    C967   O2078     0.69373      .   S
    C1222  O2078     0.69373  1_556   S
    C968   O2079     0.65538      .   S
    C983   O2079     0.65538      .   S
    C968   O2080     0.74991      .   S
    C668   O2080     0.74991      .   S
    C968   O2081     0.69373      .   S
    C1223  O2081     0.69373  1_556   S
    C979   O2082     0.65538      .   S
    C994   O2082     0.65538      .   S
    C979   O2083     0.74991      .   S
    C679   O2083     0.74991      .   S
    C979   O2084     0.69373      .   S
    C1234  O2084     0.69373  1_556   S
    C980   O2085     0.65538      .   S
    C995   O2085     0.65538      .   S
    C980   O2086     0.74991      .   S
    C680   O2086     0.74991      .   S
    C980   O2087     0.69373      .   S
    C1235  O2087     0.69373  1_556   S
    C894   O2088     0.71011      .   S
    C879   O2088     0.71011      .   S
    C894   O2089     0.47583      .   S
    C909   O2089     0.47583      .   S
    C894   O2090     0.70950      .   S
    C924   O2090     0.70950  1_556   S
    C895   O2091     0.71011      .   S
    C880   O2091     0.71011      .   S
    C895   O2092     0.47583      .   S
    C910   O2092     0.47583      .   S
    C895   O2093     0.70950      .   S
    C925   O2093     0.70950  1_556   S
    C898   O2094     0.71011      .   S
    C883   O2094     0.71011      .   S
    C898   O2095     0.47583      .   S
    C913   O2095     0.47583      .   S
    C898   O2096     0.70950      .   S
    C928   O2096     0.70950  1_556   S
    C899   O2097     0.71011      .   S
    C884   O2097     0.71011      .   S
    C899   O2098     0.47583      .   S
    C914   O2098     0.47583      .   S
    C899   O2099     0.70950      .   S
    C929   O2099     0.70950  1_556   S
    C1355  O2100     0.75222      .   S
    C740   O2100     0.75222      .   S
    C1355  O2101     0.66971      .   S
    C950   O2101     0.66971      .   S
    C1355  O2102     0.67946      .   S
    C815   O2102     0.67946  1_556   S
    C1354  O2103     0.75222      .   S
    C739   O2103     0.75222      .   S
    C1354  O2104     0.66971      .   S
    C949   O2104     0.66971      .   S
    C1354  O2105     0.67946      .   S
    C814   O2105     0.67946  1_556   S
    C1343  O2106     0.75222      .   S
    C728   O2106     0.75222      .   S
    C1343  O2107     0.66971      .   S
    C938   O2107     0.66971      .   S
    C1343  O2108     0.67946      .   S
    C803   O2108     0.67946  1_556   S
    C1342  O2109     0.75222      .   S
    C727   O2109     0.75222      .   S
    C1342  O2110     0.66971      .   S
    C937   O2110     0.66971      .   S
    C1342  O2111     0.67946      .   S
    C802   O2111     0.67946  1_556   S
    C1732  O2112     0.57063      .   S
    C1829  O2112     0.57063      .   S
    C1733  O2113     0.57063      .   S
    C1830  O2113     0.57063      .   S
    C1744  O2114     0.57063      .   S
    C1841  O2114     0.57063      .   S
    C1745  O2115     0.57063      .   S
    C1842  O2115     0.57063      .   S
    C1135  O2116     0.50080      .   S
    C1120  O2116     0.50080      .   S
    C1139  O2117     0.50080      .   S
    C1124  O2117     0.50080      .   S
    C1134  O2118     0.50080      .   S
    C1119  O2118     0.50080      .   S
    C1138  O2119     0.50080      .   S
    C1123  O2119     0.50080      .   S
    C1295  O2120     0.66010      .   S
    C950   O2120     0.66010      .   S
    C1294  O2121     0.66010      .   S
    C949   O2121     0.66010      .   S
    C1283  O2122     0.66010      .   S
    C938   O2122     0.66010      .   S
    C1282  O2123     0.66010      .   S
    C937   O2123     0.66010      .   S
    C307   O2124     0.63386      .   S
    C727   O2124     0.63386      .   S
    C320   O2125     0.63386      .   S
    C740   O2125     0.63386      .   S
    C319   O2126     0.63386      .   S
    C739   O2126     0.63386      .   S
    C308   O2127     0.63386      .   S
    C728   O2127     0.63386      .   S
    C1149  O2128     0.63764      .   S
    C579   O2128     0.63764      .   S
    C1150  O2129     0.63764      .   S
    C580   O2129     0.63764      .   S
    C1153  O2130     0.63764      .   S
    C583   O2130     0.63764      .   S
    C1154  O2131     0.63764      .   S
    C584   O2131     0.63764      .   S
    C879   O2132     0.72936      .   S
    C744   O2132     0.72936      .   S
    C880   O2133     0.72936      .   S
    C745   O2133     0.72936      .   S
    C883   O2134     0.72936      .   S
    C748   O2134     0.72936      .   S
    C884   O2135     0.72936      .   S
    C749   O2135     0.72936      .   S
    C1689  O2136     0.62613      .   S
    C1629  O2136     0.62613      .   S
    C1690  O2137     0.62613      .   S
    C1630  O2137     0.62613      .   S
    C1693  O2138     0.62613      .   S
    C1633  O2138     0.62613      .   S
    C1694  O2139     0.62613      .   S
    C1634  O2139     0.62613      .   S
    C1986  O2140     0.89817      .   S
    C1874  O2140     0.89817      .   S
    C1987  O2141     0.89817      .   S
    C1875  O2141     0.89817      .   S
    C1998  O2142     0.89817      .   S
    C1886  O2142     0.89817      .   S
    C1999  O2143     0.89817      .   S
    C1887  O2143     0.89817      .   S
    C1335  O2144     0.74159      .   S
    C1320  O2144     0.74159      .   S
    C1331  O2145     0.74159      .   S
    C1316  O2145     0.74159      .   S
    C1332  O2146     0.74159      .   S
    C1317  O2146     0.74159      .   S
    C1336  O2147     0.74159      .   S
    C1321  O2147     0.74159      .   S
    C517   O2148     0.62657      .   S
    C667   O2148     0.62657      .   S
    C529   O2149     0.62657      .   S
    C679   O2149     0.62657      .   S
    C530   O2150     0.62657      .   S
    C680   O2150     0.62657      .   S
    C518   O2151     0.62657      .   S
    C668   O2151     0.62657      .   S
    C727   O2152     0.63070      .   S
    C292   O2152     0.63070      .   S
    C728   O2153     0.63070      .   S
    C293   O2153     0.63070      .   S
    C739   O2154     0.63070      .   S
    C304   O2154     0.63070      .   S
    C740   O2155     0.63070      .   S
    C305   O2155     0.63070      .   S
    C429   O2156     0.61492      .   S
    C1629  O2156     0.61492      .   S
    C429   O2157     1.08654      .   S
    C144   O2157     1.08654      .   S
    C430   O2158     0.61492      .   S
    C1630  O2158     0.61492      .   S
    C430   O2159     1.08654      .   S
    C145   O2159     1.08654      .   S
    C433   O2160     0.61492      .   S
    C1633  O2160     0.61492      .   S
    C433   O2161     1.08654      .   S
    C148   O2161     1.08654      .   S
    C434   O2162     0.61492      .   S
    C1634  O2162     0.61492      .   S
    C434   O2163     1.08654      .   S
    C149   O2163     1.08654      .   S
    C680   O2164     0.63641      .   S
    C260   O2164     0.63641      .   S
    C679   O2165     0.63641      .   S
    C259   O2165     0.63641      .   S
    C668   O2166     0.63641      .   S
    C248   O2166     0.63641      .   S
    C667   O2167     0.63641      .   S
    C247   O2167     0.63641      .   S
    C1169  O2168     0.62718      .   S
    C749   O2168     0.62718      .   S
    C1164  O2169     0.62718      .   S
    C744   O2169     0.62718      .   S
    C1165  O2170     0.62718      .   S
    C745   O2170     0.62718      .   S
    C1168  O2171     0.62718      .   S
    C748   O2171     0.62718      .   S
    C149   O2172     1.11527      .   S
    C1124  O2172     1.11527      .   S
    C149   O2173     1.02309  1_455   S
    C1079  O2173     1.02309      .   S
    C148   O2174     1.11527      .   S
    C1123  O2174     1.11527      .   S
    C148   O2175     1.02309  1_655   S
    C1078  O2175     1.02309      .   S
    C145   O2176     1.11527      .   S
    C1120  O2176     1.11527      .   S
    C145   O2177     1.02309      .   S
    C1075  O2177     1.02309      .   S
    C144   O2178     1.11527      .   S
    C1119  O2178     1.11527      .   S
    C144   O2179     1.02309      .   S
    C1074  O2179     1.02309      .   S
    C749   O2180     0.63083      .   S
    C419   O2180     0.63083      .   S
    C748   O2181     0.63083      .   S
    C418   O2181     0.63083      .   S
    C745   O2182     0.63083      .   S
    C415   O2182     0.63083      .   S
    C744   O2183     0.63083      .   S
    C414   O2183     0.63083      .   S
    C1842  O2184     0.68792      .   S
    C1827  O2184     0.68792      .   S
    C1841  O2185     0.68792      .   S
    C1826  O2185     0.68792      .   S
    C579   O2186     1.10572      .   S
    C204   O2186     1.10572      .   S
    C580   O2187     1.10572      .   S
    C205   O2187     1.10572      .   S
    C583   O2188     1.10572      .   S
    C208   O2188     1.10572      .   S
    C584   O2189     1.10572      .   S
    C209   O2189     1.10572      .   S
    C1829  O2190     0.68792      .   S
    C1814  O2190     0.68792      .   S
    C1830  O2191     0.68792      .   S
    C1815  O2191     0.68792      .   S
    C193   O2192     1.07340      .   S
    C508   O2192     1.07340      .   S
    C193   O2193     1.11893      .   S
    C1093  O2193     1.11893      .   S
    C193   O2194     1.03669  1_455   S
    C238   O2194     1.03669      .   S
    C193   O2195     1.09931      .   S
    C493   O2195     1.09931  1_556   S
    C189   O2196     1.07340      .   S
    C504   O2196     1.07340      .   S
    C189   O2197     1.11893      .   S
    C1089  O2197     1.11893      .   S
    C189   O2198     1.03669      .   S
    C234   O2198     1.03669      .   S
    C189   O2199     1.09931      .   S
    C489   O2199     1.09931  1_556   S
    C190   O2200     1.07340      .   S
    C505   O2200     1.07340      .   S
    C190   O2201     1.11893      .   S
    C1090  O2201     1.11893      .   S
    C190   O2202     1.03669      .   S
    C235   O2202     1.03669      .   S
    C190   O2203     1.09931      .   S
    C490   O2203     1.09931  1_556   S
    C194   O2204     1.07340      .   S
    C509   O2204     1.07340      .   S
    C194   O2205     1.11893      .   S
    C1094  O2205     1.11893      .   S
    C194   O2206     1.03669  1_655   S
    C239   O2206     1.03669      .   S
    C194   O2207     1.09931      .   S
    C494   O2207     1.09931  1_556   S
    C1079  O2208     1.01682      .   S
    C209   O2208     1.01682      .   S
    C1078  O2209     1.01682      .   S
    C208   O2209     1.01682      .   S
    C1075  O2210     1.01682      .   S
    C205   O2210     1.01682      .   S
    C1074  O2211     1.01682      .   S
    C204   O2211     1.01682      .   S
    C504   O2212     0.62962      .   S
    C1554  O2212     0.62962      .   S
    C509   O2213     0.62962      .   S
    C1559  O2213     0.62962      .   S
    C505   O2214     0.62962      .   S
    C1555  O2214     0.62962      .   S
    C508   O2215     0.62962      .   S
    C1558  O2215     0.62962      .   S
    C305   O2216     1.11081      .   S
    C163   O2216     1.11081      .   S
    C304   O2217     1.11081      .   S
    C160   O2217     1.11081      .   S
    C293   O2218     1.11081      .   S
    C159   O2218     1.11081      .   S
    C292   O2219     1.11081      .   S
    C164   O2219     1.11081      .   S
    C247   O2220     1.09218      .   S
    C205   O2220     1.09218      .   S
    C260   O2221     1.09218      .   S
    C204   O2221     1.09218      .   S
    C259   O2222     1.09218      .   S
    C209   O2222     1.09218      .   S
    C248   O2223     1.09218      .   S
    C208   O2223     1.09218      .   S
    C1559  O2224     0.64840      .   S
    C1544  O2224     0.64840      .   S
    C1558  O2225     0.64840      .   S
    C1543  O2225     0.64840      .   S
    C1555  O2226     0.64840      .   S
    C1540  O2226     0.64840      .   S
    C1554  O2227     0.64840      .   S
    C1539  O2227     0.64840      .   S
    C1527  O2228     0.48999      .   S
    C1482  O2228     0.48999      .   S
    C1526  O2229     0.48999      .   S
    C1481  O2229     0.48999      .   S
    C1530  O2230     0.48999      .   S
    C1485  O2230     0.48999      .   S
    C1531  O2231     0.48999      .   S
    C1486  O2231     0.48999      .   S
    C1320  O2232     0.67814      .   S
    C1275  O2232     0.67814      .   S
    C1320  O2233     0.67775      .   S
    C1200  O2233     0.67775      .   S
    C1316  O2234     0.67814      .   S
    C1271  O2234     0.67814      .   S
    C1316  O2235     0.67775      .   S
    C1196  O2235     0.67775      .   S
    C1317  O2236     0.67814      .   S
    C1272  O2236     0.67814      .   S
    C1317  O2237     0.67775      .   S
    C1197  O2237     0.67775      .   S
    C1321  O2238     0.67814      .   S
    C1276  O2238     0.67814      .   S
    C1321  O2239     0.67775      .   S
    C1201  O2239     0.67775      .   S
    C414   O2240     1.10477      .   S
    C159   O2240     1.10477      .   S
    C415   O2241     1.10477      .   S
    C160   O2241     1.10477      .   S
    C418   O2242     1.10477      .   S
    C163   O2242     1.10477      .   S
    C419   O2243     1.10477      .   S
    C164   O2243     1.10477      .   S
    C1511  O2244     0.49130      .   S
    C1481  O2244     0.49130      .   S
    C1512  O2245     0.49130      .   S
    C1482  O2245     0.49130      .   S
    C1516  O2246     0.49130      .   S
    C1486  O2246     0.49130      .   S
    C1515  O2247     0.49130      .   S
    C1485  O2247     0.49130      .   S
    C1276  O2248     0.66776      .   S
    C1261  O2248     0.66776      .   S
    C1275  O2249     0.66776      .   S
    C1260  O2249     0.66776      .   S
    C1271  O2250     0.66776      .   S
    C1256  O2250     0.66776      .   S
    C1272  O2251     0.66776      .   S
    C1257  O2251     0.66776      .   S
    C1485  O2252     0.48964      .   S
    C1500  O2252     0.48964      .   S
    C1485  O2253     0.77387      .   S
    C1380  O2253     0.77387      .   S
    C1486  O2254     0.48964  1_565   S
    C1501  O2254     0.48964      .   S
    C1486  O2255     0.77387      .   S
    C1381  O2255     0.77387      .   S
    C1482  O2256     0.48964      .   S
    C1497  O2256     0.48964      .   S
    C1482  O2257     0.77387      .   S
    C1377  O2257     0.77387      .   S
    C1481  O2258     0.48964  1_545   S
    C1496  O2258     0.48964      .   S
    C1481  O2259     0.77387      .   S
    C1376  O2259     0.77387      .   S
    C1815  O2260     0.81541      .   S
    C1860  O2260     0.81541      .   S
    C1815  O2261     0.78282      .   S
    C1845  O2261     0.78282      .   S
    C1814  O2262     0.81541  1_545   S
    C1859  O2262     0.81541      .   S
    C1814  O2263     0.78282      .   S
    C1844  O2263     0.78282      .   S
    C1827  O2264     0.81541  1_565   S
    C1872  O2264     0.81541      .   S
    C1827  O2265     0.78282      .   S
    C1857  O2265     0.78282      .   S
    C1826  O2266     0.81541      .   S
    C1871  O2266     0.81541      .   S
    C1826  O2267     0.78282      .   S
    C1856  O2267     0.78282      .   S
    C283   O2268     0.49995      .   S
    C268   O2268     0.49995      .   S
    C280   O2269     0.49995      .   S
    C265   O2269     0.49995      .   S
    C279   O2270     0.49995      .   S
    C264   O2270     0.49995      .   S
    C284   O2271     0.49995      .   S
    C269   O2271     0.49995      .   S
    C1451  O2272     0.48916      .   S
    C1421  O2272     0.48916      .   S
    C1452  O2273     0.48916      .   S
    C1422  O2273     0.48916      .   S
    C1455  O2274     0.48916      .   S
    C1425  O2274     0.48916      .   S
    C1456  O2275     0.48916      .   S
    C1426  O2275     0.48916      .   S
    C265   O2276     1.11420      .   S
    C175   O2276     1.11420      .   S
    C268   O2277     1.11420      .   S
    C178   O2277     1.11420  1_655   S
    C264   O2278     1.11420      .   S
    C174   O2278     1.11420      .   S
    C269   O2279     1.11420      .   S
    C179   O2279     1.11420  1_455   S
    C220   O2280     1.03564      .   S
    C160   O2280     1.03564      .   S
    C220   O2281     1.03380      .   S
    C175   O2281     1.03380      .   S
    C219   O2282     1.03564      .   S
    C159   O2282     1.03564      .   S
    C219   O2283     1.03380      .   S
    C174   O2283     1.03380      .   S
    C223   O2284     1.03564      .   S
    C163   O2284     1.03564      .   S
    C223   O2285     1.03380      .   S
    C178   O2285     1.03380      .   S
    C224   O2286     1.03564      .   S
    C164   O2286     1.03564      .   S
    C224   O2287     1.03380      .   S
    C179   O2287     1.03380      .   S
    C1770  O2288     0.74769      .   S
    C1710  O2288     0.74769      .   S
    C1767  O2289     0.74769      .   S
    C1707  O2289     0.74769      .   S
    C1771  O2290     0.74769      .   S
    C1711  O2290     0.74769      .   S
    C1766  O2291     0.74769      .   S
    C1706  O2291     0.74769      .   S
    C209   O2292     1.10126      .   S
    C374   O2292     1.10126      .   S
    C209   O2293     1.10693      .   S
    C387   O2293     1.10693      .   S
    C209   O2294     1.01980      .   S
    C1064  O2294     1.01980      .   S
    C208   O2295     1.10126      .   S
    C373   O2295     1.10126      .   S
    C208   O2296     1.10693      .   S
    C390   O2296     1.10693      .   S
    C208   O2297     1.01980      .   S
    C1063  O2297     1.01980      .   S
    C205   O2298     1.10126      .   S
    C370   O2298     1.10126      .   S
    C205   O2299     1.10693      .   S
    C391   O2299     1.10693      .   S
    C205   O2300     1.01980      .   S
    C1060  O2300     1.01980      .   S
    C204   O2301     1.10126      .   S
    C369   O2301     1.10126      .   S
    C204   O2302     1.10693      .   S
    C386   O2302     1.10693      .   S
    C204   O2303     1.01980      .   S
    C1059  O2303     1.01980      .   S
    C1603  O2304     0.67063      .   S
    C1678  O2304     0.67063  1_655   S
    C1600  O2305     0.67063      .   S
    C1675  O2305     0.67063      .   S
    C1604  O2306     0.67063      .   S
    C1679  O2306     0.67063  1_455   S
    C1599  O2307     0.67063      .   S
    C1674  O2307     0.67063      .   S
    C1711  O2308     0.73904      .   S
    C1756  O2308     0.73904      .   S
    C1710  O2309     0.73904      .   S
    C1755  O2309     0.73904      .   S
    C1706  O2310     0.73904      .   S
    C1751  O2310     0.73904      .   S
    C1707  O2311     0.73904      .   S
    C1752  O2311     0.73904      .   S
    C1196  O2312     0.47408  1_545   S
    C1211  O2312     0.47408      .   S
    C1196  O2313     0.69648      .   S
    C836   O2313     0.69648      .   S
    C1201  O2314     0.47408  1_565   S
    C1216  O2314     0.47408      .   S
    C1201  O2315     0.69648      .   S
    C841   O2315     0.69648      .   S
    C1200  O2316     0.47408      .   S
    C1215  O2316     0.47408      .   S
    C1200  O2317     0.69648      .   S
    C840   O2317     0.69648      .   S
    C1197  O2318     0.47408      .   S
    C1212  O2318     0.47408      .   S
    C1197  O2319     0.69648      .   S
    C837   O2319     0.69648      .   S
    C1466  O2320     0.49002      .   S
    C1421  O2320     0.49002      .   S
    C1467  O2321     0.49002      .   S
    C1422  O2321     0.49002      .   S
    C1471  O2322     0.49002      .   S
    C1426  O2322     0.49002      .   S
    C1470  O2323     0.49002      .   S
    C1425  O2323     0.49002      .   S
    C164   O2324     1.03548      .   S
    C239   O2324     1.03548      .   S
    C164   O2325     1.10936      .   S
    C346   O2325     1.10936      .   S
    C164   O2326     1.10108      .   S
    C554   O2326     1.10108      .   S
    C163   O2327     1.03548      .   S
    C238   O2327     1.03548      .   S
    C163   O2328     1.10936      .   S
    C341   O2328     1.10936      .   S
    C163   O2329     1.10108      .   S
    C553   O2329     1.10108      .   S
    C159   O2330     1.03548      .   S
    C234   O2330     1.03548      .   S
    C159   O2331     1.10936      .   S
    C345   O2331     1.10936      .   S
    C159   O2332     1.10108      .   S
    C549   O2332     1.10108      .   S
    C160   O2333     1.03548      .   S
    C235   O2333     1.03548      .   S
    C160   O2334     1.10936      .   S
    C342   O2334     1.10936      .   S
    C160   O2335     1.10108      .   S
    C550   O2335     1.10108      .   S
    C1094  O2336     0.50026      .   S
    C1109  O2336     0.50026      .   S
    C1090  O2337     0.50026      .   S
    C1105  O2337     0.50026      .   S
    C1093  O2338     0.50026      .   S
    C1108  O2338     0.50026      .   S
    C1089  O2339     0.50026      .   S
    C1104  O2339     0.50026      .   S
    C1919  O2340     0.50001      .   S
    C1949  O2340     0.50001      .   S
    C1920  O2341     0.50001      .   S
    C1950  O2341     0.50001      .   S
    C1930  O2342     0.64568      .   S
    C1900  O2342     0.64568      .   S
    C1916  O2343     0.50001      .   S
    C1946  O2343     0.50001      .   S
    C1915  O2344     0.50001      .   S
    C1945  O2344     0.50001      .   S
    C1934  O2345     0.64568      .   S
    C1904  O2345     0.64568      .   S
    C1935  O2346     0.64568      .   S
    C1905  O2346     0.64568      .   S
    C1931  O2347     0.64568      .   S
    C1901  O2347     0.64568      .   S
    C1422  O2348     0.69883      .   S
    C1377  O2348     0.69883      .   S
    C1422  O2349     0.49021      .   S
    C1437  O2349     0.49021      .   S
    C1421  O2350     0.69883      .   S
    C1376  O2350     0.69883      .   S
    C1421  O2351     0.49021      .   S
    C1436  O2351     0.49021      .   S
    C1425  O2352     0.69883      .   S
    C1380  O2352     0.69883      .   S
    C1425  O2353     0.49021      .   S
    C1440  O2353     0.49021      .   S
    C1426  O2354     0.69883      .   S
    C1381  O2354     0.69883      .   S
    C1426  O2355     0.49021      .   S
    C1441  O2355     0.49021      .   S
    C1256  O2356     0.68692      .   S
    C836   O2356     0.68692      .   S
    C1260  O2357     0.68692      .   S
    C840   O2357     0.68692      .   S
    C1257  O2358     0.68692      .   S
    C837   O2358     0.68692      .   S
    C1261  O2359     0.68692      .   S
    C841   O2359     0.68692      .   S
    C1675  O2360     0.64820      .   S
    C565   O2360     0.64820      .   S
    C1674  O2361     0.64820      .   S
    C564   O2361     0.64820      .   S
    C1679  O2362     0.64820      .   S
    C569   O2362     0.64820      .   S
    C1678  O2363     0.64820      .   S
    C568   O2363     0.64820      .   S
    C1381  O2364     0.66899      .   S
    C1396  O2364     0.66899      .   S
    C1376  O2365     0.66899      .   S
    C1391  O2365     0.66899      .   S
    C1380  O2366     0.66899      .   S
    C1395  O2366     0.66899      .   S
    C1377  O2367     0.66899      .   S
    C1392  O2367     0.66899      .   S
    C369   O2368     0.63871      .   S
    C609   O2368     0.63871      .   S
    C370   O2369     0.63871      .   S
    C610   O2369     0.63871      .   S
    C373   O2370     0.63871      .   S
    C613   O2370     0.63871      .   S
    C374   O2371     0.63871      .   S
    C614   O2371     0.63871      .   S
    C841   O2372     0.74157      .   S
    C961   O2372     0.74157      .   S
    C836   O2373     0.74157      .   S
    C956   O2373     0.74157      .   S
    C837   O2374     0.74157      .   S
    C957   O2374     0.74157      .   S
    C840   O2375     0.74157      .   S
    C960   O2375     0.74157      .   S
    C568   O2376     1.08330      .   S
    C178   O2376     1.08330      .   S
    C569   O2377     1.08330      .   S
    C179   O2377     1.08330      .   S
    C565   O2378     1.08330      .   S
    C175   O2378     1.08330      .   S
    C564   O2379     1.08330      .   S
    C174   O2379     1.08330      .   S
    C346   O2380     0.63156      .   S
    C781   O2380     0.63156      .   S
    C345   O2381     0.63156      .   S
    C780   O2381     0.63156      .   S
    C341   O2382     0.63156      .   S
    C776   O2382     0.63156      .   S
    C342   O2383     0.63156      .   S
    C777   O2383     0.63156      .   S
    C1569  O2384     0.64070      .   S
    C1584  O2384     0.64070      .   S
    C1574  O2385     0.64070      .   S
    C1589  O2385     0.64070      .   S
    C1573  O2386     0.64070      .   S
    C1588  O2386     0.64070      .   S
    C1570  O2387     0.64070      .   S
    C1585  O2387     0.64070      .   S
    C386   O2388     0.63021      .   S
    C791   O2388     0.63021      .   S
    C391   O2389     0.63021      .   S
    C796   O2389     0.63021      .   S
    C390   O2390     0.63021      .   S
    C795   O2390     0.63021      .   S
    C387   O2391     0.63021      .   S
    C792   O2391     0.63021      .   S
    C1064  O2392     1.02664      .   S
    C134   O2392     1.02664      .   S
    C1059  O2393     1.02664      .   S
    C129   O2393     1.02664      .   S
    C1060  O2394     1.02664      .   S
    C130   O2394     1.02664      .   S
    C1063  O2395     1.02664      .   S
    C133   O2395     1.02664      .   S
    C175   O2396     1.11765      .   S
    C460   O2396     1.11765      .   S
    C175   O2397     1.08709      .   S
    C362   O2397     1.08709      .   S
    C174   O2398     1.11765      .   S
    C459   O2398     1.11765      .   S
    C174   O2399     1.08709      .   S
    C363   O2399     1.08709      .   S
    C178   O2400     1.11765      .   S
    C463   O2400     1.11765      .   S
    C178   O2401     1.08709      .   S
    C351   O2401     1.08709      .   S
    C179   O2402     1.11765      .   S
    C464   O2402     1.11765      .   S
    C179   O2403     1.08709      .   S
    C15    O2403     1.08709      .   S
    C549   O2404     0.62557      .   S
    C759   O2404     0.62557      .   S
    C550   O2405     0.62557      .   S
    C760   O2405     0.62557      .   S
    C553   O2406     0.62557      .   S
    C763   O2406     0.62557      .   S
    C554   O2407     0.62557      .   S
    C764   O2407     0.62557      .   S
    C1645  O2408     0.67178      .   S
    C1615  O2408     0.67178      .   S
    C1645  O2409     0.63832      .   S
    C625   O2409     0.63832      .   S
    C1644  O2410     0.67178      .   S
    C1614  O2410     0.67178      .   S
    C1644  O2411     0.63832      .   S
    C624   O2411     0.63832      .   S
    C1649  O2412     0.67178      .   S
    C1619  O2412     0.67178      .   S
    C1649  O2413     0.63832      .   S
    C629   O2413     0.63832      .   S
    C1648  O2414     0.67178      .   S
    C1618  O2414     0.67178      .   S
    C1648  O2415     0.63832      .   S
    C628   O2415     0.63832      .   S
    C1615  O2416     0.73646      .   S
    C1660  O2416     0.73646      .   S
    C1618  O2417     0.73646      .   S
    C1663  O2417     0.73646      .   S
    C1614  O2418     0.73646      .   S
    C1659  O2418     0.73646      .   S
    C1619  O2419     0.73646      .   S
    C1664  O2419     0.73646      .   S
    C777   O2420     0.63432      .   S
    C402   O2420     0.63432      .   S
    C777   O2421     0.73229      .   S
    C657   O2421     0.73229      .   S
    C1395  O2422     0.47541      .   S
    C1410  O2422     0.47541      .   S
    C1395  O2423     0.59160      .   S
    C1365  O2423     0.59160      .   S
    C1392  O2424     0.47541      .   S
    C1407  O2424     0.47541      .   S
    C1392  O2425     0.59160      .   S
    C1362  O2425     0.59160      .   S
    C1391  O2426     0.47541      .   S
    C1406  O2426     0.47541  1_565   S
    C1391  O2427     0.59160      .   S
    C1361  O2427     0.59160      .   S
    C781   O2428     0.63432      .   S
    C406   O2428     0.63432      .   S
    C781   O2429     0.73229      .   S
    C661   O2429     0.73229      .   S
    C780   O2430     0.63432      .   S
    C405   O2430     0.63432      .   S
    C780   O2431     0.73229      .   S
    C660   O2431     0.73229      .   S
    C776   O2432     0.63432      .   S
    C401   O2432     0.63432      .   S
    C776   O2433     0.73229      .   S
    C656   O2433     0.73229      .   S
    C1396  O2434     0.47541      .   S
    C1411  O2434     0.47541  1_545   S
    C1396  O2435     0.59160      .   S
    C1366  O2435     0.59160      .   S
    C1051  O2436     0.68928      .   S
    C661   O2436     0.68928      .   S
    C1051  O2437     0.66946      .   S
    C1186  O2437     0.66946      .   S
    C1050  O2438     0.68928      .   S
    C660   O2438     0.68928      .   S
    C1050  O2439     0.66946      .   S
    C1185  O2439     0.66946      .   S
    C1046  O2440     0.68928      .   S
    C656   O2440     0.68928      .   S
    C1046  O2441     0.66946      .   S
    C1181  O2441     0.66946      .   S
    C1047  O2442     0.68928      .   S
    C657   O2442     0.68928      .   S
    C1047  O2443     0.66946      .   S
    C1182  O2443     0.66946      .   S
    C609   O2444     0.62089      .   S
    C444   O2444     0.62089      .   S
    C609   O2445     0.74639      .   S
    C684   O2445     0.74639      .   S
    C610   O2446     0.62089      .   S
    C445   O2446     0.62089      .   S
    C610   O2447     0.74639      .   S
    C685   O2447     0.74639      .   S
    C614   O2448     0.62089      .   S
    C449   O2448     0.62089      .   S
    C614   O2449     0.74639      .   S
    C689   O2449     0.74639      .   S
    C613   O2450     0.62089      .   S
    C448   O2450     0.62089      .   S
    C613   O2451     0.74639      .   S
    C688   O2451     0.74639      .   S
    C130   O2452     1.12542      .   S
    C595   O2452     1.12542      .   S
    C134   O2453     1.12542  1_655   S
    C599   O2453     1.12542      .   S
    C133   O2454     1.12542  1_455   S
    C598   O2454     1.12542      .   S
    C129   O2455     1.12542      .   S
    C594   O2455     1.12542      .   S
    C459   O2456     0.49897      .   S
    C474   O2456     0.49897      .   S
    C460   O2457     0.49897      .   S
    C475   O2457     0.49897      .   S
    C463   O2458     0.49897      .   S
    C478   O2458     0.49897      .   S
    C464   O2459     0.49897      .   S
    C479   O2459     0.49897      .   S
    C629   O2460     0.63579      .   S
    C1589  O2460     0.63579      .   S
    C625   O2461     0.63579      .   S
    C1585  O2461     0.63579      .   S
    C624   O2462     0.63579      .   S
    C1584  O2462     0.63579      .   S
    C628   O2463     0.63579      .   S
    C1588  O2463     0.63579      .   S
    C1807  O2464     0.95565      .   S
    C1785  O2464     0.95565      .   S
    C1804  O2465     0.95565      .   S
    C1782  O2465     0.95565      .   S
    C1808  O2466     0.95565      .   S
    C1786  O2466     0.95565      .   S
    C1803  O2467     0.95565      .   S
    C1781  O2467     0.95565      .   S
    C792   O2468     0.62882      .   S
    C327   O2468     0.62882      .   S
    C792   O2469     0.70882      .   S
    C927   O2469     0.70882      .   S
    C796   O2470     0.62882      .   S
    C331   O2470     0.62882      .   S
    C796   O2471     0.70882      .   S
    C931   O2471     0.70882      .   S
    C795   O2472     0.62882      .   S
    C330   O2472     0.62882      .   S
    C795   O2473     0.70882      .   S
    C930   O2473     0.70882      .   S
    C791   O2474     0.62882      .   S
    C326   O2474     0.62882      .   S
    C791   O2475     0.70882      .   S
    C926   O2475     0.70882      .   S
    C656   O2476     0.68565      .   S
    C1001  O2476     0.68565      .   S
    C661   O2477     0.68565      .   S
    C1006  O2477     0.68565      .   S
    C657   O2478     0.68565      .   S
    C1002  O2478     0.68565      .   S
    C660   O2479     0.68565      .   S
    C1005  O2479     0.68565      .   S
    C760   O2480     0.62937      .   S
    C595   O2480     0.62937      .   S
    C760   O2481     0.74639      .   S
    C700   O2481     0.74639      .   S
    C764   O2482     0.62937      .   S
    C599   O2482     0.62937      .   S
    C764   O2483     0.74639      .   S
    C704   O2483     0.74639      .   S
    C759   O2484     0.62937      .   S
    C594   O2484     0.62937      .   S
    C759   O2485     0.74639      .   S
    C699   O2485     0.74639      .   S
    C763   O2486     0.62937      .   S
    C598   O2486     0.62937      .   S
    C763   O2487     0.74639      .   S
    C703   O2487     0.74639      .   S
    C1186  O2488     0.68334      .   S
    C1306  O2488     0.68334      .   S
    C1185  O2489     0.68334      .   S
    C1305  O2489     0.68334      .   S
    C1182  O2490     0.68334      .   S
    C1302  O2490     0.68334      .   S
    C1181  O2491     0.68334      .   S
    C1301  O2491     0.68334      .   S
    C961   O2492     0.64385      .   S
    C646   O2492     0.64385  1_545   S
    C961   O2493     0.64134      .   S
    C496   O2493     0.64134      .   S
    C957   O2494     0.64385      .   S
    C642   O2494     0.64385      .   S
    C957   O2495     0.64134      .   S
    C492   O2495     0.64134      .   S
    C956   O2496     0.64385      .   S
    C641   O2496     0.64385  1_565   S
    C956   O2497     0.64134      .   S
    C491   O2497     0.64134      .   S
    C960   O2498     0.64385      .   S
    C645   O2498     0.64385      .   S
    C960   O2499     0.64134      .   S
    C495   O2499     0.64134      .   S
    C851   O2500     0.70984      .   S
    C926   O2500     0.70984      .   S
    C851   O2501     0.71013      .   S
    C866   O2501     0.71013      .   S
    C852   O2502     0.70984      .   S
    C927   O2502     0.70984      .   S
    C852   O2503     0.71013      .   S
    C867   O2503     0.71013      .   S
    C855   O2504     0.70984      .   S
    C930   O2504     0.70984      .   S
    C855   O2505     0.71013      .   S
    C870   O2505     0.71013      .   S
    C856   O2506     0.70984      .   S
    C931   O2506     0.70984      .   S
    C856   O2507     0.71013      .   S
    C871   O2507     0.71013      .   S
    C1244  O2508     0.47524      .   S
    C1229  O2508     0.47524      .   S
    C1240  O2509     0.47524      .   S
    C1225  O2509     0.47524      .   S
    C1239  O2510     0.47524      .   S
    C1224  O2510     0.47524      .   S
    C1243  O2511     0.47524      .   S
    C1228  O2511     0.47524      .   S
    C819   O2512     0.47555      .   S
    C804   O2512     0.47555      .   S
    C820   O2513     0.47555      .   S
    C805   O2513     0.47555      .   S
    C824   O2514     0.47555      .   S
    C809   O2514     0.47555      .   S
    C823   O2515     0.47555      .   S
    C808   O2515     0.47555      .   S
    C689   O2516     0.67429      .   S
    C1229  O2516     0.67429      .   S
    C689   O2517     0.66232      .   S
    C1034  O2517     0.66232      .   S
    C688   O2518     0.67429      .   S
    C1228  O2518     0.67429      .   S
    C688   O2519     0.66232      .   S
    C1033  O2519     0.66232      .   S
    C685   O2520     0.67429      .   S
    C1225  O2520     0.67429      .   S
    C685   O2521     0.66232      .   S
    C1030  O2521     0.66232      .   S
    C684   O2522     0.67429      .   S
    C1224  O2522     0.67429      .   S
    C684   O2523     0.66232      .   S
    C1029  O2523     0.66232      .   S
    C926   O2524     0.70950      .   S
    C896   O2524     0.70950      .   S
    C931   O2525     0.70950      .   S
    C901   O2525     0.70950      .   S
    C930   O2526     0.70950      .   S
    C900   O2526     0.70950      .   S
    C927   O2527     0.70950      .   S
    C897   O2527     0.70950      .   S
    C1228  O2528     0.69373      .   S
    C973   O2528     0.69373      .   S
    C1229  O2529     0.69373      .   S
    C974   O2529     0.69373      .   S
    C1225  O2530     0.69373      .   S
    C970   O2530     0.69373      .   S
    C1224  O2531     0.69373      .   S
    C969   O2531     0.69373      .   S
    C492   O2532     1.09931      .   S
    C192   O2532     1.09931      .   S
    C495   O2533     1.09931      .   S
    C195   O2533     1.09931      .   S
    C496   O2534     1.09931      .   S
    C196   O2534     1.09931      .   S
    C491   O2535     1.09931      .   S
    C191   O2535     1.09931      .   S
    C804   O2536     0.69229      .   S
    C699   O2536     0.69229      .   S
    C804   O2537     0.67946      .   S
    C1344  O2537     0.67946      .   S
    C805   O2538     0.69229      .   S
    C700   O2538     0.69229      .   S
    C805   O2539     0.67946      .   S
    C1345  O2539     0.67946      .   S
    C808   O2540     0.69229      .   S
    C703   O2540     0.69229      .   S
    C808   O2541     0.67946      .   S
    C1348  O2541     0.67946      .   S
    C809   O2542     0.69229      .   S
    C704   O2542     0.69229      .   S
    C809   O2543     0.67946      .   S
    C1349  O2543     0.67946      .   S
    C703   O2544     0.66080      .   S
    C1288  O2544     0.66080      .   S
    C699   O2545     0.66080      .   S
    C1284  O2545     0.66080      .   S
    C700   O2546     0.66080      .   S
    C1285  O2546     0.66080      .   S
    C704   O2547     0.66080      .   S
    C1289  O2547     0.66080      .   S
    C866   O2548     0.71020      .   S
    C881   O2548     0.71020      .   S
    C867   O2549     0.71020      .   S
    C882   O2549     0.71020      .   S
    C870   O2550     0.71020      .   S
    C885   O2550     0.71020      .   S
    C871   O2551     0.71020      .   S
    C886   O2551     0.71020      .   S
    C1001  O2552     0.69020      .   S
    C1301  O2552     0.69020      .   S
    C1001  O2553     0.47464      .   S
    C1016  O2553     0.47464      .   S
    C1002  O2554     0.69020      .   S
    C1302  O2554     0.69020      .   S
    C1002  O2555     0.47464      .   S
    C1017  O2555     0.47464      .   S
    C1005  O2556     0.69020      .   S
    C1305  O2556     0.69020      .   S
    C1005  O2557     0.47464      .   S
    C1020  O2557     0.47464      .   S
    C1006  O2558     0.69020      .   S
    C1306  O2558     0.69020      .   S
    C1006  O2559     0.47464      .   S
    C1021  O2559     0.47464      .   S
    C1305  O2560     0.73722      .   S
    C1155  O2560     0.73722      .   S
    C1302  O2561     0.73722      .   S
    C1152  O2561     0.73722      .   S
    C1301  O2562     0.73722      .   S
    C1151  O2562     0.73722      .   S
    C1306  O2563     0.73722      .   S
    C1156  O2563     0.73722      .   S
    C1974  O2564     0.57252      .   S
    C1889  O2564     0.57252      .   S
    C1974  O2565     0.66089      .   S
    C1877  O2565     0.66089      .   S
    C1889  O2566     0.57252      .   S
    C1973  O2566     0.57252      .   S
    C1977  O2567     0.57252      .   S
    C1891  O2567     0.57252  1_545   S
    C1977  O2568     0.66089      .   S
    C1880  O2568     0.66089      .   S
    C1978  O2569     0.57252      .   S
    C1891  O2569     0.57252  1_455   S
    C1978  O2570     0.66089      .   S
    C1881  O2570     0.66089      .   S
    C1973  O2571     0.66089      .   S
    C1876  O2571     0.66089      .   S
    C15    O2572     0.64194      .   S
    C80    O2572     0.64194  1_655   S
    C363   O2573     0.64194      .   S
    C1338  O2573     0.64194      .   S
    C362   O2574     0.64194      .   S
    C1337  O2574     0.64194      .   S
    C351   O2575     0.64194      .   S
    C1326  O2575     0.64194  1_455   S
    C1029  O2576     0.65843      .   S
    C984   O2576     0.65843      .   S
    C1034  O2577     0.65843      .   S
    C989   O2577     0.65843      .   S
    C1033  O2578     0.65843      .   S
    C988   O2578     0.65843      .   S
    C1030  O2579     0.65843      .   S
    C985   O2579     0.65843      .   S
    C720   O2580     0.63049      .   S
    C1155  O2580     0.63049      .   S
    C720   O2581     1.12249      .   S
    C150   O2581     1.12249      .   S
    C717   O2582     0.63049      .   S
    C1152  O2582     0.63049      .   S
    C717   O2583     1.12249      .   S
    C147   O2583     1.12249      .   S
    C716   O2584     0.63049      .   S
    C1151  O2584     0.63049      .   S
    C716   O2585     1.12249      .   S
    C146   O2585     1.12249      .   S
    C721   O2586     0.63049      .   S
    C1156  O2586     0.63049      .   S
    C721   O2587     1.12249      .   S
    C151   O2587     1.12249      .   S
    C27    O2588     0.63920      .   S
    C80    O2588     0.63920      .   S
    C531   O2589     0.63920      .   S
    C1326  O2589     0.63920      .   S
    C542   O2590     0.63920      .   S
    C1337  O2590     0.63920      .   S
    C543   O2591     0.63920      .   S
    C1338  O2591     0.63920      .   S
    C969   O2592     0.65538      .   S
    C984   O2592     0.65538      .   S
    C969   O2593     0.74991      .   S
    C669   O2593     0.74991      .   S
    C970   O2594     0.65538      .   S
    C985   O2594     0.65538      .   S
    C970   O2595     0.74991      .   S
    C670   O2595     0.74991      .   S
    C974   O2596     0.65538      .   S
    C989   O2596     0.65538      .   S
    C974   O2597     0.74991      .   S
    C674   O2597     0.74991      .   S
    C973   O2598     0.65538      .   S
    C988   O2598     0.65538      .   S
    C973   O2599     0.74991      .   S
    C673   O2599     0.74991      .   S
    C901   O2600     0.71011      .   S
    C886   O2600     0.71011      .   S
    C901   O2601     0.47583      .   S
    C916   O2601     0.47583      .   S
    C900   O2602     0.71011      .   S
    C885   O2602     0.71011      .   S
    C900   O2603     0.47583      .   S
    C915   O2603     0.47583      .   S
    C897   O2604     0.71011      .   S
    C882   O2604     0.71011      .   S
    C897   O2605     0.47583      .   S
    C912   O2605     0.47583      .   S
    C896   O2606     0.71011      .   S
    C881   O2606     0.71011      .   S
    C896   O2607     0.47583      .   S
    C911   O2607     0.47583      .   S
    C1349  O2608     0.75222      .   S
    C734   O2608     0.75222      .   S
    C1349  O2609     0.66971      .   S
    C944   O2609     0.66971      .   S
    C1348  O2610     0.75222      .   S
    C733   O2610     0.75222      .   S
    C1348  O2611     0.66971      .   S
    C943   O2611     0.66971      .   S
    C1345  O2612     0.75222      .   S
    C730   O2612     0.75222      .   S
    C1345  O2613     0.66971      .   S
    C940   O2613     0.66971      .   S
    C1344  O2614     0.75222      .   S
    C729   O2614     0.75222      .   S
    C1344  O2615     0.66971      .   S
    C939   O2615     0.66971      .   S
    C1738  O2616     0.57063      .   S
    C1835  O2616     0.57063      .   S
    C1735  O2617     0.57063      .   S
    C1832  O2617     0.57063      .   S
    C1734  O2618     0.57063      .   S
    C1831  O2618     0.57063      .   S
    C1739  O2619     0.57063      .   S
    C1836  O2619     0.57063      .   S
    C1136  O2620     0.50080      .   S
    C1121  O2620     0.50080      .   S
    C1137  O2621     0.50080      .   S
    C1122  O2621     0.50080      .   S
    C1140  O2622     0.50080      .   S
    C1125  O2622     0.50080      .   S
    C1141  O2623     0.50080      .   S
    C1126  O2623     0.50080      .   S
    C1288  O2624     0.66010      .   S
    C943   O2624     0.66010      .   S
    C1289  O2625     0.66010      .   S
    C944   O2625     0.66010      .   S
    C1284  O2626     0.66010      .   S
    C939   O2626     0.66010      .   S
    C1285  O2627     0.66010      .   S
    C940   O2627     0.66010      .   S
    C1155  O2628     0.63764      .   S
    C585   O2628     0.63764      .   S
    C1151  O2629     0.63764      .   S
    C581   O2629     0.63764      .   S
    C1152  O2630     0.63764      .   S
    C582   O2630     0.63764      .   S
    C1156  O2631     0.63764      .   S
    C586   O2631     0.63764      .   S
    C309   O2632     0.63386      .   S
    C729   O2632     0.63386      .   S
    C310   O2633     0.63386      .   S
    C730   O2633     0.63386      .   S
    C313   O2634     0.63386      .   S
    C733   O2634     0.63386      .   S
    C314   O2635     0.63386      .   S
    C734   O2635     0.63386      .   S
    C882   O2636     0.72936      .   S
    C747   O2636     0.72936      .   S
    C886   O2637     0.72936      .   S
    C751   O2637     0.72936      .   S
    C885   O2638     0.72936      .   S
    C750   O2638     0.72936      .   S
    C881   O2639     0.72936      .   S
    C746   O2639     0.72936      .   S
    C1691  O2640     0.62613      .   S
    C1631  O2640     0.62613      .   S
    C1692  O2641     0.62613      .   S
    C1632  O2641     0.62613      .   S
    C1695  O2642     0.62613      .   S
    C1635  O2642     0.62613      .   S
    C1696  O2643     0.62613      .   S
    C1636  O2643     0.62613      .   S
    C1992  O2644     0.89817      .   S
    C1880  O2644     0.89817  1_455   S
    C1988  O2645     0.89817      .   S
    C1876  O2645     0.89817      .   S
    C1989  O2646     0.89817      .   S
    C1877  O2646     0.89817      .   S
    C1993  O2647     0.89817      .   S
    C1881  O2647     0.89817  1_655   S
    C80    O2648     0.74159  1_655   S
    C79    O2648     0.74159      .   S
    C1326  O2649     0.74159  1_455   S
    C1311  O2649     0.74159      .   S
    C1337  O2650     0.74159      .   S
    C1322  O2650     0.74159      .   S
    C1338  O2651     0.74159      .   S
    C1323  O2651     0.74159      .   S
    C520   O2652     0.62657      .   S
    C670   O2652     0.62657      .   S
    C519   O2653     0.62657      .   S
    C669   O2653     0.62657      .   S
    C523   O2654     0.62657      .   S
    C673   O2654     0.62657      .   S
    C524   O2655     0.62657      .   S
    C674   O2655     0.62657      .   S
    C733   O2656     0.63070      .   S
    C298   O2656     0.63070      .   S
    C730   O2657     0.63070      .   S
    C295   O2657     0.63070      .   S
    C729   O2658     0.63070      .   S
    C294   O2658     0.63070      .   S
    C734   O2659     0.63070      .   S
    C299   O2659     0.63070      .   S
    C432   O2660     0.61492      .   S
    C1632  O2660     0.61492      .   S
    C432   O2661     1.08654      .   S
    C147   O2661     1.08654      .   S
    C431   O2662     0.61492      .   S
    C1631  O2662     0.61492      .   S
    C431   O2663     1.08654      .   S
    C146   O2663     1.08654      .   S
    C435   O2664     0.61492      .   S
    C1635  O2664     0.61492      .   S
    C435   O2665     1.08654      .   S
    C150   O2665     1.08654      .   S
    C436   O2666     0.61492      .   S
    C1636  O2666     0.61492      .   S
    C436   O2667     1.08654      .   S
    C151   O2667     1.08654      .   S
    C669   O2668     0.63641      .   S
    C249   O2668     0.63641      .   S
    C673   O2669     0.63641      .   S
    C253   O2669     0.63641      .   S
    C670   O2670     0.63641      .   S
    C250   O2670     0.63641      .   S
    C674   O2671     0.63641      .   S
    C254   O2671     0.63641      .   S
    C1170  O2672     0.62718      .   S
    C750   O2672     0.62718      .   S
    C1171  O2673     0.62718      .   S
    C751   O2673     0.62718      .   S
    C1167  O2674     0.62718      .   S
    C747   O2674     0.62718      .   S
    C1166  O2675     0.62718      .   S
    C746   O2675     0.62718      .   S
    C146   O2676     1.11527      .   S
    C1121  O2676     1.11527  1_545   S
    C146   O2677     1.02309      .   S
    C1076  O2677     1.02309      .   S
    C147   O2678     1.11527      .   S
    C1122  O2678     1.11527      .   S
    C147   O2679     1.02309      .   S
    C1077  O2679     1.02309      .   S
    C150   O2680     1.11527      .   S
    C1125  O2680     1.11527      .   S
    C150   O2681     1.02309      .   S
    C1080  O2681     1.02309      .   S
    C151   O2682     1.11527      .   S
    C1126  O2682     1.11527  1_565   S
    C151   O2683     1.02309      .   S
    C1081  O2683     1.02309      .   S
    C747   O2684     0.63083      .   S
    C417   O2684     0.63083      .   S
    C751   O2685     0.63083      .   S
    C421   O2685     0.63083      .   S
    C750   O2686     0.63083      .   S
    C420   O2686     0.63083      .   S
    C746   O2687     0.63083      .   S
    C416   O2687     0.63083      .   S
    C1836  O2688     0.68792      .   S
    C1821  O2688     0.68792      .   S
    C1835  O2689     0.68792      .   S
    C1820  O2689     0.68792      .   S
    C1832  O2690     0.68792      .   S
    C1817  O2690     0.68792      .   S
    C1831  O2691     0.68792      .   S
    C1816  O2691     0.68792      .   S
    C586   O2692     1.10572      .   S
    C211   O2692     1.10572      .   S
    C585   O2693     1.10572      .   S
    C210   O2693     1.10572      .   S
    C582   O2694     1.10572      .   S
    C207   O2694     1.10572      .   S
    C581   O2695     1.10572      .   S
    C206   O2695     1.10572      .   S
    C195   O2696     1.07340      .   S
    C510   O2696     1.07340      .   S
    C195   O2697     1.11893      .   S
    C1095  O2697     1.11893      .   S
    C195   O2698     1.03669      .   S
    C240   O2698     1.03669      .   S
    C196   O2699     1.07340      .   S
    C511   O2699     1.07340      .   S
    C196   O2700     1.11893      .   S
    C1096  O2700     1.11893      .   S
    C196   O2701     1.03669      .   S
    C241   O2701     1.03669      .   S
    C192   O2702     1.07340      .   S
    C507   O2702     1.07340      .   S
    C192   O2703     1.11893      .   S
    C1092  O2703     1.11893      .   S
    C192   O2704     1.03669      .   S
    C237   O2704     1.03669      .   S
    C191   O2705     1.07340      .   S
    C506   O2705     1.07340      .   S
    C191   O2706     1.11893      .   S
    C1091  O2706     1.11893      .   S
    C191   O2707     1.03669      .   S
    C236   O2707     1.03669      .   S
    C1081  O2708     1.01682      .   S
    C211   O2708     1.01682      .   S
    C1076  O2709     1.01682      .   S
    C206   O2709     1.01682      .   S
    C1077  O2710     1.01682      .   S
    C207   O2710     1.01682      .   S
    C1080  O2711     1.01682      .   S
    C210   O2711     1.01682      .   S
    C511   O2712     0.62962      .   S
    C1561  O2712     0.62962      .   S
    C510   O2713     0.62962      .   S
    C1560  O2713     0.62962      .   S
    C507   O2714     0.62962      .   S
    C1557  O2714     0.62962      .   S
    C506   O2715     0.62962      .   S
    C1556  O2715     0.62962      .   S
    C298   O2716     1.11081      .   S
    C162   O2716     1.11081      .   S
    C299   O2717     1.11081      .   S
    C165   O2717     1.11081      .   S
    C295   O2718     1.11081  1_565   S
    C161   O2718     1.11081      .   S
    C294   O2719     1.11081  1_545   S
    C166   O2719     1.11081      .   S
    C249   O2720     1.09218      .   S
    C207   O2720     1.09218      .   S
    C250   O2721     1.09218      .   S
    C210   O2721     1.09218      .   S
    C253   O2722     1.09218  1_565   S
    C211   O2722     1.09218      .   S
    C254   O2723     1.09218  1_545   S
    C206   O2723     1.09218      .   S
    C1560  O2724     0.64840      .   S
    C1545  O2724     0.64840      .   S
    C1561  O2725     0.64840      .   S
    C1546  O2725     0.64840      .   S
    C1557  O2726     0.64840      .   S
    C1542  O2726     0.64840      .   S
    C1556  O2727     0.64840      .   S
    C1541  O2727     0.64840      .   S
    C93    O2728     0.48999      .   S
    C90    O2728     0.48999      .   S
    C1521  O2729     0.48999      .   S
    C1476  O2729     0.48999      .   S
    C1533  O2730     0.48999      .   S
    C1488  O2730     0.48999      .   S
    C1532  O2731     0.48999      .   S
    C1487  O2731     0.48999      .   S
    C79    O2732     0.67814      .   S
    C76    O2732     0.67814      .   S
    C79    O2733     0.67775  1_455   S
    C71    O2733     0.67775      .   S
    C1311  O2734     0.67814      .   S
    C1266  O2734     0.67814      .   S
    C1311  O2735     0.67775  1_655   S
    C1191  O2735     0.67775      .   S
    C1323  O2736     0.67814      .   S
    C1278  O2736     0.67814      .   S
    C1323  O2737     0.67775      .   S
    C1203  O2737     0.67775      .   S
    C1322  O2738     0.67814      .   S
    C1277  O2738     0.67814      .   S
    C1322  O2739     0.67775      .   S
    C1202  O2739     0.67775      .   S
    C421   O2740     1.10477      .   S
    C166   O2740     1.10477      .   S
    C420   O2741     1.10477      .   S
    C165   O2741     1.10477      .   S
    C416   O2742     1.10477      .   S
    C161   O2742     1.10477      .   S
    C417   O2743     1.10477      .   S
    C162   O2743     1.10477      .   S
    C1517  O2744     0.49130      .   S
    C1487  O2744     0.49130      .   S
    C1518  O2745     0.49130      .   S
    C1488  O2745     0.49130      .   S
    C1506  O2746     0.49130      .   S
    C1476  O2746     0.49130      .   S
    C92    O2747     0.49130      .   S
    C90    O2747     0.49130      .   S
    C76    O2748     0.66776      .   S
    C75    O2748     0.66776      .   S
    C1266  O2749     0.66776      .   S
    C1251  O2749     0.66776      .   S
    C1277  O2750     0.66776      .   S
    C1262  O2750     0.66776      .   S
    C1278  O2751     0.66776      .   S
    C1263  O2751     0.66776      .   S
    C90    O2752     0.48964      .   S
    C91    O2752     0.48964      .   S
    C90    O2753     0.77387      .   S
    C83    O2753     0.77387      .   S
    C1487  O2754     0.48964      .   S
    C1502  O2754     0.48964      .   S
    C1487  O2755     0.77387      .   S
    C1382  O2755     0.77387      .   S
    C1488  O2756     0.48964      .   S
    C1503  O2756     0.48964      .   S
    C1488  O2757     0.77387      .   S
    C1383  O2757     0.77387      .   S
    C1476  O2758     0.48964      .   S
    C1491  O2758     0.48964      .   S
    C1476  O2759     0.77387      .   S
    C1371  O2759     0.77387      .   S
    C1820  O2760     0.81541      .   S
    C1865  O2760     0.81541      .   S
    C1820  O2761     0.78282      .   S
    C1850  O2761     0.78282      .   S
    C1816  O2762     0.81541      .   S
    C1861  O2762     0.81541      .   S
    C1816  O2763     0.78282      .   S
    C1846  O2763     0.78282      .   S
    C1817  O2764     0.81541      .   S
    C1862  O2764     0.81541      .   S
    C1817  O2765     0.78282      .   S
    C1847  O2765     0.78282      .   S
    C1821  O2766     0.81541      .   S
    C1866  O2766     0.81541      .   S
    C1821  O2767     0.78282      .   S
    C1851  O2767     0.78282      .   S
    C281   O2768     0.49995      .   S
    C266   O2768     0.49995      .   S
    C285   O2769     0.49995      .   S
    C270   O2769     0.49995      .   S
    C286   O2770     0.49995      .   S
    C271   O2770     0.49995      .   S
    C282   O2771     0.49995      .   S
    C267   O2771     0.49995      .   S
    C88    O2772     0.48916      .   S
    C86    O2772     0.48916      .   S
    C1446  O2773     0.48916      .   S
    C1416  O2773     0.48916      .   S
    C1457  O2774     0.48916      .   S
    C1427  O2774     0.48916      .   S
    C1458  O2775     0.48916      .   S
    C1428  O2775     0.48916      .   S
    C267   O2776     1.11420      .   S
    C177   O2776     1.11420      .   S
    C266   O2777     1.11420      .   S
    C176   O2777     1.11420      .   S
    C271   O2778     1.11420      .   S
    C181   O2778     1.11420      .   S
    C270   O2779     1.11420      .   S
    C180   O2779     1.11420      .   S
    C225   O2780     1.03564      .   S
    C165   O2780     1.03564      .   S
    C225   O2781     1.03380      .   S
    C180   O2781     1.03380      .   S
    C222   O2782     1.03564      .   S
    C162   O2782     1.03564      .   S
    C222   O2783     1.03380      .   S
    C177   O2783     1.03380      .   S
    C221   O2784     1.03564      .   S
    C161   O2784     1.03564  1_545   S
    C221   O2785     1.03380      .   S
    C176   O2785     1.03380      .   S
    C226   O2786     1.03564      .   S
    C166   O2786     1.03564  1_565   S
    C226   O2787     1.03380      .   S
    C181   O2787     1.03380      .   S
    C109   O2788     0.74769      .   S
    C105   O2788     0.74769      .   S
    C1761  O2789     0.74769      .   S
    C1701  O2789     0.74769      .   S
    C1772  O2790     0.74769      .   S
    C1712  O2790     0.74769      .   S
    C1773  O2791     0.74769      .   S
    C1713  O2791     0.74769      .   S
    C207   O2792     1.10126      .   S
    C372   O2792     1.10126      .   S
    C207   O2793     1.10693      .   S
    C393   O2793     1.10693      .   S
    C207   O2794     1.01980      .   S
    C1062  O2794     1.01980      .   S
    C210   O2795     1.10126      .   S
    C375   O2795     1.10126      .   S
    C210   O2796     1.10693      .   S
    C392   O2796     1.10693      .   S
    C210   O2797     1.01980      .   S
    C1065  O2797     1.01980      .   S
    C206   O2798     1.10126      .   S
    C371   O2798     1.10126      .   S
    C206   O2799     1.10693      .   S
    C17    O2799     1.10693  1_545   S
    C206   O2800     1.01980      .   S
    C1061  O2800     1.01980      .   S
    C211   O2801     1.10126      .   S
    C376   O2801     1.10126      .   S
    C211   O2802     1.10693      .   S
    C381   O2802     1.10693  1_565   S
    C211   O2803     1.01980      .   S
    C1066  O2803     1.01980      .   S
    C1606  O2804     0.67063      .   S
    C1681  O2804     0.67063      .   S
    C1602  O2805     0.67063      .   S
    C1677  O2805     0.67063      .   S
    C1605  O2806     0.67063      .   S
    C1680  O2806     0.67063      .   S
    C1601  O2807     0.67063      .   S
    C1676  O2807     0.67063      .   S
    C105   O2808     0.73904      .   S
    C108   O2808     0.73904  1_545   S
    C1713  O2809     0.73904      .   S
    C1758  O2809     0.73904      .   S
    C1701  O2810     0.73904      .   S
    C1746  O2810     0.73904  1_565   S
    C1712  O2811     0.73904      .   S
    C1757  O2811     0.73904      .   S
    C71    O2812     0.47408      .   S
    C72    O2812     0.47408      .   S
    C71    O2813     0.69648      .   S
    C47    O2813     0.69648  1_455   S
    C1191  O2814     0.47408      .   S
    C1206  O2814     0.47408      .   S
    C1191  O2815     0.69648      .   S
    C831   O2815     0.69648  1_655   S
    C1203  O2816     0.47408      .   S
    C1218  O2816     0.47408      .   S
    C1203  O2817     0.69648      .   S
    C843   O2817     0.69648      .   S
    C1202  O2818     0.47408      .   S
    C1217  O2818     0.47408      .   S
    C1202  O2819     0.69648      .   S
    C842   O2819     0.69648      .   S
    C89    O2820     0.49002      .   S
    C86    O2820     0.49002      .   S
    C1473  O2821     0.49002      .   S
    C1428  O2821     0.49002      .   S
    C1472  O2822     0.49002      .   S
    C1427  O2822     0.49002      .   S
    C1461  O2823     0.49002      .   S
    C1416  O2823     0.49002      .   S
    C166   O2824     1.03548      .   S
    C241   O2824     1.03548      .   S
    C166   O2825     1.10936      .   S
    C348   O2825     1.10936  1_545   S
    C166   O2826     1.10108      .   S
    C556   O2826     1.10108      .   S
    C165   O2827     1.03548      .   S
    C240   O2827     1.03548      .   S
    C165   O2828     1.10936      .   S
    C14    O2828     1.10936      .   S
    C165   O2829     1.10108      .   S
    C555   O2829     1.10108      .   S
    C162   O2830     1.03548      .   S
    C237   O2830     1.03548      .   S
    C162   O2831     1.10936      .   S
    C336   O2831     1.10936      .   S
    C162   O2832     1.10108      .   S
    C552   O2832     1.10108      .   S
    C161   O2833     1.03548      .   S
    C236   O2833     1.03548      .   S
    C161   O2834     1.10936      .   S
    C347   O2834     1.10936  1_565   S
    C161   O2835     1.10108      .   S
    C551   O2835     1.10108      .   S
    C1096  O2836     0.50026      .   S
    C1111  O2836     0.50026      .   S
    C1095  O2837     0.50026      .   S
    C1110  O2837     0.50026      .   S
    C1092  O2838     0.50026      .   S
    C1107  O2838     0.50026      .   S
    C1091  O2839     0.50026      .   S
    C1106  O2839     0.50026      .   S
    C121   O2840     0.64568      .   S
    C119   O2840     0.64568  1_455   S
    C120   O2841     0.50001      .   S
    C122   O2841     0.50001      .   S
    C1937  O2842     0.64568      .   S
    C1907  O2842     0.64568      .   S
    C1921  O2843     0.50001      .   S
    C1951  O2843     0.50001      .   S
    C1910  O2844     0.50001      .   S
    C1940  O2844     0.50001      .   S
    C1922  O2845     0.50001      .   S
    C1952  O2845     0.50001      .   S
    C1925  O2846     0.64568      .   S
    C1895  O2846     0.64568  1_655   S
    C1936  O2847     0.64568      .   S
    C1906  O2847     0.64568      .   S
    C86    O2848     0.69883      .   S
    C83    O2848     0.69883      .   S
    C86    O2849     0.49021      .   S
    C87    O2849     0.49021      .   S
    C1427  O2850     0.69883      .   S
    C1382  O2850     0.69883      .   S
    C1427  O2851     0.49021      .   S
    C1442  O2851     0.49021      .   S
    C1416  O2852     0.69883      .   S
    C1371  O2852     0.69883      .   S
    C1416  O2853     0.49021      .   S
    C1431  O2853     0.49021      .   S
    C1428  O2854     0.69883      .   S
    C1383  O2854     0.69883      .   S
    C1428  O2855     0.49021      .   S
    C1443  O2855     0.49021      .   S
    C75    O2856     0.68692      .   S
    C47    O2856     0.68692      .   S
    C1263  O2857     0.68692      .   S
    C843   O2857     0.68692      .   S
    C1251  O2858     0.68692      .   S
    C831   O2858     0.68692      .   S
    C1262  O2859     0.68692      .   S
    C842   O2859     0.68692      .   S
    C1681  O2860     0.64820      .   S
    C571   O2860     0.64820      .   S
    C1676  O2861     0.64820      .   S
    C566   O2861     0.64820      .   S
    C1677  O2862     0.64820      .   S
    C567   O2862     0.64820      .   S
    C1680  O2863     0.64820      .   S
    C570   O2863     0.64820      .   S
    C83    O2864     0.66899      .   S
    C84    O2864     0.66899      .   S
    C1382  O2865     0.66899      .   S
    C1397  O2865     0.66899      .   S
    C1383  O2866     0.66899      .   S
    C1398  O2866     0.66899      .   S
    C1371  O2867     0.66899      .   S
    C1386  O2867     0.66899      .   S
    C375   O2868     0.63871      .   S
    C615   O2868     0.63871      .   S
    C371   O2869     0.63871      .   S
    C611   O2869     0.63871      .   S
    C376   O2870     0.63871      .   S
    C616   O2870     0.63871      .   S
    C372   O2871     0.63871      .   S
    C612   O2871     0.63871      .   S
    C47    O2872     0.74157      .   S
    C55    O2872     0.74157      .   S
    C842   O2873     0.74157      .   S
    C962   O2873     0.74157      .   S
    C843   O2874     0.74157      .   S
    C963   O2874     0.74157      .   S
    C831   O2875     0.74157      .   S
    C951   O2875     0.74157      .   S
    C570   O2876     1.08330      .   S
    C180   O2876     1.08330      .   S
    C571   O2877     1.08330      .   S
    C181   O2877     1.08330      .   S
    C567   O2878     1.08330      .   S
    C177   O2878     1.08330      .   S
    C566   O2879     1.08330      .   S
    C176   O2879     1.08330      .   S
    C14    O2880     0.63156      .   S
    C43    O2880     0.63156      .   S
    C336   O2881     0.63156      .   S
    C771   O2881     0.63156      .   S
    C347   O2882     0.63156      .   S
    C782   O2882     0.63156      .   S
    C348   O2883     0.63156      .   S
    C783   O2883     0.63156      .   S
    C1572  O2884     0.64070      .   S
    C1587  O2884     0.64070      .   S
    C1571  O2885     0.64070      .   S
    C1586  O2885     0.64070      .   S
    C1576  O2886     0.64070      .   S
    C1591  O2886     0.64070      .   S
    C1575  O2887     0.64070      .   S
    C1590  O2887     0.64070      .   S
    C17    O2888     0.63021      .   S
    C44    O2888     0.63021      .   S
    C392   O2889     0.63021      .   S
    C797   O2889     0.63021      .   S
    C393   O2890     0.63021      .   S
    C798   O2890     0.63021      .   S
    C381   O2891     0.63021      .   S
    C786   O2891     0.63021      .   S
    C1066  O2892     1.02664  1_545   S
    C136   O2892     1.02664      .   S
    C1065  O2893     1.02664      .   S
    C135   O2893     1.02664      .   S
    C1062  O2894     1.02664      .   S
    C132   O2894     1.02664      .   S
    C1061  O2895     1.02664  1_565   S
    C131   O2895     1.02664      .   S
    C177   O2896     1.11765      .   S
    C462   O2896     1.11765      .   S
    C177   O2897     1.08709      .   S
    C364   O2897     1.08709      .   S
    C176   O2898     1.11765      .   S
    C461   O2898     1.11765  1_545   S
    C176   O2899     1.08709      .   S
    C365   O2899     1.08709      .   S
    C180   O2900     1.11765      .   S
    C465   O2900     1.11765      .   S
    C180   O2901     1.08709      .   S
    C353   O2901     1.08709      .   S
    C181   O2902     1.11765      .   S
    C466   O2902     1.11765  1_565   S
    C181   O2903     1.08709      .   S
    C352   O2903     1.08709      .   S
    C551   O2904     0.62557      .   S
    C761   O2904     0.62557      .   S
    C552   O2905     0.62557      .   S
    C762   O2905     0.62557      .   S
    C555   O2906     0.62557      .   S
    C765   O2906     0.62557      .   S
    C556   O2907     0.62557      .   S
    C766   O2907     0.62557      .   S
    C1651  O2908     0.67178      .   S
    C1621  O2908     0.67178      .   S
    C1651  O2909     0.63832      .   S
    C631   O2909     0.63832      .   S
    C1650  O2910     0.67178      .   S
    C1620  O2910     0.67178      .   S
    C1650  O2911     0.63832      .   S
    C630   O2911     0.63832      .   S
    C1647  O2912     0.67178      .   S
    C1617  O2912     0.67178      .   S
    C1647  O2913     0.63832      .   S
    C627   O2913     0.63832      .   S
    C1646  O2914     0.67178      .   S
    C1616  O2914     0.67178      .   S
    C1646  O2915     0.63832      .   S
    C626   O2915     0.63832      .   S
    C1617  O2916     0.73646      .   S
    C1662  O2916     0.73646      .   S
    C1616  O2917     0.73646      .   S
    C1661  O2917     0.73646      .   S
    C1620  O2918     0.73646      .   S
    C1665  O2918     0.73646      .   S
    C1621  O2919     0.73646      .   S
    C1666  O2919     0.73646      .   S
    C43    O2920     0.63432      .   S
    C18    O2920     0.63432      .   S
    C43    O2921     0.73229      .   S
    C35    O2921     0.73229      .   S
    C84    O2922     0.47541      .   S
    C85    O2922     0.47541      .   S
    C84    O2923     0.59160      .   S
    C82    O2923     0.59160      .   S
    C1398  O2924     0.47541      .   S
    C1413  O2924     0.47541      .   S
    C1398  O2925     0.59160      .   S
    C1368  O2925     0.59160      .   S
    C1397  O2926     0.47541      .   S
    C1412  O2926     0.47541      .   S
    C1397  O2927     0.59160      .   S
    C1367  O2927     0.59160      .   S
    C1386  O2928     0.47541      .   S
    C1401  O2928     0.47541      .   S
    C1386  O2929     0.59160      .   S
    C1356  O2929     0.59160      .   S
    C783   O2930     0.63432      .   S
    C408   O2930     0.63432      .   S
    C783   O2931     0.73229      .   S
    C663   O2931     0.73229      .   S
    C771   O2932     0.63432      .   S
    C396   O2932     0.63432      .   S
    C771   O2933     0.73229      .   S
    C651   O2933     0.73229      .   S
    C782   O2934     0.63432      .   S
    C407   O2934     0.63432      .   S
    C782   O2935     0.73229      .   S
    C662   O2935     0.73229      .   S
    C61    O2936     0.68928      .   S
    C35    O2936     0.68928      .   S
    C61    O2937     0.66946      .   S
    C70    O2937     0.66946      .   S
    C1041  O2938     0.68928      .   S
    C651   O2938     0.68928      .   S
    C1041  O2939     0.66946      .   S
    C1176  O2939     0.66946      .   S
    C1053  O2940     0.68928      .   S
    C663   O2940     0.68928      .   S
    C1053  O2941     0.66946      .   S
    C1188  O2941     0.66946      .   S
    C1052  O2942     0.68928      .   S
    C662   O2942     0.68928      .   S
    C1052  O2943     0.66946      .   S
    C1187  O2943     0.66946      .   S
    C615   O2944     0.62089      .   S
    C450   O2944     0.62089      .   S
    C615   O2945     0.74639      .   S
    C690   O2945     0.74639      .   S
    C612   O2946     0.62089      .   S
    C447   O2946     0.62089      .   S
    C612   O2947     0.74639      .   S
    C687   O2947     0.74639      .   S
    C611   O2948     0.62089      .   S
    C446   O2948     0.62089      .   S
    C611   O2949     0.74639      .   S
    C686   O2949     0.74639      .   S
    C616   O2950     0.62089      .   S
    C451   O2950     0.62089      .   S
    C616   O2951     0.74639      .   S
    C691   O2951     0.74639      .   S
    C132   O2952     1.12542      .   S
    C597   O2952     1.12542      .   S
    C131   O2953     1.12542      .   S
    C596   O2953     1.12542      .   S
    C135   O2954     1.12542      .   S
    C600   O2954     1.12542      .   S
    C136   O2955     1.12542      .   S
    C601   O2955     1.12542      .   S
    C462   O2956     0.49897      .   S
    C477   O2956     0.49897      .   S
    C461   O2957     0.49897      .   S
    C476   O2957     0.49897      .   S
    C466   O2958     0.49897      .   S
    C481   O2958     0.49897      .   S
    C465   O2959     0.49897      .   S
    C480   O2959     0.49897      .   S
    C631   O2960     0.63579      .   S
    C1591  O2960     0.63579      .   S
    C630   O2961     0.63579      .   S
    C1590  O2961     0.63579      .   S
    C627   O2962     0.63579      .   S
    C1587  O2962     0.63579      .   S
    C626   O2963     0.63579      .   S
    C1586  O2963     0.63579      .   S
    C112   O2964     0.95565      .   S
    C110   O2964     0.95565  1_655   S
    C1798  O2965     0.95565      .   S
    C1776  O2965     0.95565  1_455   S
    C1809  O2966     0.95565      .   S
    C1787  O2966     0.95565      .   S
    C1810  O2967     0.95565      .   S
    C1788  O2967     0.95565      .   S
    C44    O2968     0.62882      .   S
    C13    O2968     0.62882      .   S
    C44    O2969     0.70882      .   S
    C53    O2969     0.70882      .   S
    C786   O2970     0.62882      .   S
    C321   O2970     0.62882      .   S
    C786   O2971     0.70882      .   S
    C921   O2971     0.70882      .   S
    C798   O2972     0.62882      .   S
    C333   O2972     0.62882      .   S
    C798   O2973     0.70882      .   S
    C933   O2973     0.70882      .   S
    C797   O2974     0.62882      .   S
    C332   O2974     0.62882      .   S
    C797   O2975     0.70882      .   S
    C932   O2975     0.70882      .   S
    C35    O2976     0.68565      .   S
    C58    O2976     0.68565      .   S
    C663   O2977     0.68565      .   S
    C1008  O2977     0.68565      .   S
    C662   O2978     0.68565      .   S
    C1007  O2978     0.68565      .   S
    C651   O2979     0.68565      .   S
    C996   O2979     0.68565      .   S
    C761   O2980     0.62937      .   S
    C596   O2980     0.62937      .   S
    C761   O2981     0.74639      .   S
    C701   O2981     0.74639      .   S
    C762   O2982     0.62937      .   S
    C597   O2982     0.62937      .   S
    C762   O2983     0.74639      .   S
    C702   O2983     0.74639      .   S
    C765   O2984     0.62937      .   S
    C600   O2984     0.62937      .   S
    C765   O2985     0.74639      .   S
    C705   O2985     0.74639      .   S
    C766   O2986     0.62937      .   S
    C601   O2986     0.62937      .   S
    C766   O2987     0.74639      .   S
    C706   O2987     0.74639      .   S
    C70    O2988     0.68334      .   S
    C78    O2988     0.68334      .   S
    C1176  O2989     0.68334      .   S
    C1296  O2989     0.68334      .   S
    C1188  O2990     0.68334      .   S
    C1308  O2990     0.68334      .   S
    C1187  O2991     0.68334      .   S
    C1307  O2991     0.68334      .   S
    C55    O2992     0.64385  1_455   S
    C34    O2992     0.64385      .   S
    C55    O2993     0.64134      .   S
    C24    O2993     0.64134      .   S
    C963   O2994     0.64385      .   S
    C648   O2994     0.64385      .   S
    C963   O2995     0.64134      .   S
    C498   O2995     0.64134      .   S
    C962   O2996     0.64385      .   S
    C647   O2996     0.64385      .   S
    C962   O2997     0.64134      .   S
    C497   O2997     0.64134      .   S
    C951   O2998     0.64385  1_655   S
    C636   O2998     0.64385      .   S
    C951   O2999     0.64134      .   S
    C486   O2999     0.64134      .   S
    C48    O3000     0.70984      .   S
    C53    O3000     0.70984      .   S
    C48    O3001     0.71013      .   S
    C49    O3001     0.71013      .   S
    C858   O3002     0.70984      .   S
    C933   O3002     0.70984      .   S
    C858   O3003     0.71013      .   S
    C873   O3003     0.71013      .   S
    C857   O3004     0.70984      .   S
    C932   O3004     0.70984      .   S
    C857   O3005     0.71013      .   S
    C872   O3005     0.71013      .   S
    C846   O3006     0.70984      .   S
    C921   O3006     0.70984      .   S
    C846   O3007     0.71013      .   S
    C861   O3007     0.71013      .   S
    C1242  O3008     0.47524      .   S
    C1227  O3008     0.47524      .   S
    C1241  O3009     0.47524      .   S
    C1226  O3009     0.47524      .   S
    C1245  O3010     0.47524      .   S
    C1230  O3010     0.47524      .   S
    C1246  O3011     0.47524      .   S
    C1231  O3011     0.47524      .   S
    C826   O3012     0.47555      .   S
    C811   O3012     0.47555      .   S
    C825   O3013     0.47555      .   S
    C810   O3013     0.47555      .   S
    C822   O3014     0.47555      .   S
    C807   O3014     0.47555      .   S
    C821   O3015     0.47555      .   S
    C806   O3015     0.47555      .   S
    C691   O3016     0.67429      .   S
    C1231  O3016     0.67429      .   S
    C691   O3017     0.66232      .   S
    C1036  O3017     0.66232      .   S
    C690   O3018     0.67429      .   S
    C1230  O3018     0.67429      .   S
    C690   O3019     0.66232      .   S
    C1035  O3019     0.66232      .   S
    C687   O3020     0.67429      .   S
    C1227  O3020     0.67429      .   S
    C687   O3021     0.66232      .   S
    C1032  O3021     0.66232      .   S
    C686   O3022     0.67429      .   S
    C1226  O3022     0.67429      .   S
    C686   O3023     0.66232      .   S
    C1031  O3023     0.66232      .   S
    C53    O3024     0.70950      .   S
    C51    O3024     0.70950      .   S
    C921   O3025     0.70950      .   S
    C891   O3025     0.70950      .   S
    C933   O3026     0.70950      .   S
    C903   O3026     0.70950      .   S
    C932   O3027     0.70950      .   S
    C902   O3027     0.70950      .   S
    C1226  O3028     0.69373      .   S
    C971   O3028     0.69373      .   S
    C1231  O3029     0.69373      .   S
    C976   O3029     0.69373      .   S
    C1230  O3030     0.69373      .   S
    C975   O3030     0.69373      .   S
    C1227  O3031     0.69373      .   S
    C972   O3031     0.69373      .   S
    C24    O3032     1.09931      .   S
    C4     O3032     1.09931      .   S
    C486   O3033     1.09931      .   S
    C186   O3033     1.09931      .   S
    C497   O3034     1.09931      .   S
    C197   O3034     1.09931      .   S
    C498   O3035     1.09931      .   S
    C198   O3035     1.09931      .   S
    C807   O3036     0.69229      .   S
    C702   O3036     0.69229      .   S
    C807   O3037     0.67946      .   S
    C1347  O3037     0.67946      .   S
    C811   O3038     0.69229      .   S
    C706   O3038     0.69229      .   S
    C811   O3039     0.67946      .   S
    C1351  O3039     0.67946      .   S
    C810   O3040     0.69229      .   S
    C705   O3040     0.69229      .   S
    C810   O3041     0.67946      .   S
    C1350  O3041     0.67946      .   S
    C806   O3042     0.69229      .   S
    C701   O3042     0.69229      .   S
    C806   O3043     0.67946      .   S
    C1346  O3043     0.67946      .   S
    C701   O3044     0.66080      .   S
    C1286  O3044     0.66080      .   S
    C706   O3045     0.66080      .   S
    C1291  O3045     0.66080      .   S
    C705   O3046     0.66080      .   S
    C1290  O3046     0.66080      .   S
    C702   O3047     0.66080      .   S
    C1287  O3047     0.66080      .   S
    C49    O3048     0.71020      .   S
    C50    O3048     0.71020      .   S
    C873   O3049     0.71020      .   S
    C888   O3049     0.71020      .   S
    C872   O3050     0.71020      .   S
    C887   O3050     0.71020      .   S
    C861   O3051     0.71020      .   S
    C876   O3051     0.71020      .   S
    C58    O3052     0.69020      .   S
    C78    O3052     0.69020      .   S
    C58    O3053     0.47464      .   S
    C59    O3053     0.47464      .   S
    C996   O3054     0.69020      .   S
    C1296  O3054     0.69020      .   S
    C996   O3055     0.47464      .   S
    C1011  O3055     0.47464      .   S
    C1008  O3056     0.69020      .   S
    C1308  O3056     0.69020      .   S
    C1008  O3057     0.47464      .   S
    C1023  O3057     0.47464      .   S
    C1007  O3058     0.69020      .   S
    C1307  O3058     0.69020      .   S
    C1007  O3059     0.47464      .   S
    C1022  O3059     0.47464      .   S
    C78    O3060     0.73722      .   S
    C68    O3060     0.73722      .   S
    C1307  O3061     0.73722      .   S
    C1157  O3061     0.73722      .   S
    C1296  O3062     0.73722      .   S
    C1146  O3062     0.73722      .   S
    C1308  O3063     0.73722      .   S
    C1158  O3063     0.73722      .   S
    C1979  O3064     0.57252      .   S
    C1892  O3064     0.57252      .   S
    C1979  O3065     0.66089      .   S
    C1882  O3065     0.66089      .   S
    C1890  O3066     0.57252      .   S
    C1976  O3066     0.57252      .   S
    C1890  O3067     0.57252      .   S
    C1975  O3067     0.57252      .   S
    C1976  O3068     0.66089      .   S
    C1879  O3068     0.66089      .   S
    C1892  O3069     0.57252      .   S
    C1980  O3069     0.57252      .   S
    C1975  O3070     0.66089      .   S
    C1878  O3070     0.66089      .   S
    C1980  O3071     0.66089      .   S
    C1883  O3071     0.66089      .   S
    C353   O3072     0.64194      .   S
    C1328  O3072     0.64194      .   S
    C352   O3073     0.64194      .   S
    C1327  O3073     0.64194      .   S
    C364   O3074     0.64194      .   S
    C1339  O3074     0.64194      .   S
    C365   O3075     0.64194      .   S
    C1340  O3075     0.64194      .   S
    C1031  O3076     0.65843      .   S
    C986   O3076     0.65843      .   S
    C1032  O3077     0.65843      .   S
    C987   O3077     0.65843      .   S
    C1035  O3078     0.65843      .   S
    C990   O3078     0.65843      .   S
    C1036  O3079     0.65843      .   S
    C991   O3079     0.65843      .   S
    C39    O3080     0.63049      .   S
    C68    O3080     0.63049      .   S
    C39    O3081     1.12249      .   S
    C1     O3081     1.12249  1_655   S
    C722   O3082     0.63049      .   S
    C1157  O3082     0.63049      .   S
    C722   O3083     1.12249      .   S
    C152   O3083     1.12249      .   S
    C723   O3084     0.63049      .   S
    C1158  O3084     0.63049      .   S
    C723   O3085     1.12249      .   S
    C153   O3085     1.12249      .   S
    C711   O3086     0.63049      .   S
    C1146  O3086     0.63049      .   S
    C711   O3087     1.12249      .   S
    C141   O3087     1.12249  1_455   S
    C532   O3088     0.63920      .   S
    C1327  O3088     0.63920  1_545   S
    C533   O3089     0.63920      .   S
    C1328  O3089     0.63920      .   S
    C544   O3090     0.63920      .   S
    C1339  O3090     0.63920      .   S
    C545   O3091     0.63920      .   S
    C1340  O3091     0.63920  1_565   S
    C975   O3092     0.65538      .   S
    C990   O3092     0.65538      .   S
    C975   O3093     0.74991      .   S
    C675   O3093     0.74991      .   S
    C976   O3094     0.65538      .   S
    C991   O3094     0.65538      .   S
    C976   O3095     0.74991      .   S
    C676   O3095     0.74991      .   S
    C972   O3096     0.65538      .   S
    C987   O3096     0.65538      .   S
    C972   O3097     0.74991      .   S
    C672   O3097     0.74991      .   S
    C971   O3098     0.65538      .   S
    C986   O3098     0.65538      .   S
    C971   O3099     0.74991      .   S
    C671   O3099     0.74991      .   S
    C51    O3100     0.71011      .   S
    C50    O3100     0.71011      .   S
    C51    O3101     0.47583      .   S
    C52    O3101     0.47583      .   S
    C903   O3102     0.71011      .   S
    C888   O3102     0.71011      .   S
    C903   O3103     0.47583      .   S
    C918   O3103     0.47583      .   S
    C902   O3104     0.71011      .   S
    C887   O3104     0.71011      .   S
    C902   O3105     0.47583      .   S
    C917   O3105     0.47583      .   S
    C891   O3106     0.71011      .   S
    C876   O3106     0.71011      .   S
    C891   O3107     0.47583      .   S
    C906   O3107     0.47583      .   S
    C1351  O3108     0.75222      .   S
    C736   O3108     0.75222      .   S
    C1351  O3109     0.66971      .   S
    C946   O3109     0.66971      .   S
    C1346  O3110     0.75222      .   S
    C731   O3110     0.75222      .   S
    C1346  O3111     0.66971      .   S
    C941   O3111     0.66971      .   S
    C1350  O3112     0.75222      .   S
    C735   O3112     0.75222      .   S
    C1350  O3113     0.66971      .   S
    C945   O3113     0.66971      .   S
    C1347  O3114     0.75222      .   S
    C732   O3114     0.75222      .   S
    C1347  O3115     0.66971      .   S
    C942   O3115     0.66971      .   S
    C67    O3116     0.50080      .   S
    C66    O3116     0.50080      .   S
    C1143  O3117     0.50080      .   S
    C1128  O3117     0.50080      .   S
    C1131  O3118     0.50080      .   S
    C1116  O3118     0.50080      .   S
    C1741  O3119     0.57063      .   S
    C1838  O3119     0.57063      .   S
    C1142  O3120     0.50080      .   S
    C1127  O3120     0.50080      .   S
    C1740  O3121     0.57063      .   S
    C1837  O3121     0.57063      .   S
    C1736  O3122     0.57063      .   S
    C1833  O3122     0.57063      .   S
    C1737  O3123     0.57063      .   S
    C1834  O3123     0.57063      .   S
    C1290  O3124     0.66010      .   S
    C945   O3124     0.66010      .   S
    C1291  O3125     0.66010      .   S
    C946   O3125     0.66010      .   S
    C1287  O3126     0.66010      .   S
    C942   O3126     0.66010      .   S
    C1286  O3127     0.66010      .   S
    C941   O3127     0.66010      .   S
    C1146  O3128     0.63764      .   S
    C576   O3128     0.63764      .   S
    C312   O3129     0.63386      .   S
    C732   O3129     0.63386      .   S
    C316   O3130     0.63386      .   S
    C736   O3130     0.63386      .   S
    C68    O3131     0.63764      .   S
    C30    O3131     0.63764      .   S
    C1158  O3132     0.63764      .   S
    C588   O3132     0.63764      .   S
    C315   O3133     0.63386      .   S
    C735   O3133     0.63386      .   S
    C1157  O3134     0.63764      .   S
    C587   O3134     0.63764      .   S
    C311   O3135     0.63386      .   S
    C731   O3135     0.63386      .   S
    C50    O3136     0.72936      .   S
    C41    O3136     0.72936      .   S
    C876   O3137     0.72936      .   S
    C741   O3137     0.72936      .   S
    C887   O3138     0.72936      .   S
    C752   O3138     0.72936      .   S
    C888   O3139     0.72936      .   S
    C753   O3139     0.72936      .   S
    C1686  O3140     0.62613      .   S
    C1626  O3140     0.62613      .   S
    C1698  O3141     0.62613      .   S
    C1638  O3141     0.62613      .   S
    C1697  O3142     0.62613      .   S
    C1637  O3142     0.62613      .   S
    C104   O3143     0.62613      .   S
    C100   O3143     0.62613      .   S
    C1990  O3144     0.89817      .   S
    C1878  O3144     0.89817      .   S
    C1991  O3145     0.89817      .   S
    C1879  O3145     0.89817      .   S
    C1994  O3146     0.89817      .   S
    C1882  O3146     0.89817      .   S
    C1995  O3147     0.89817      .   S
    C1883  O3147     0.89817      .   S
    C1327  O3148     0.74159      .   S
    C1312  O3148     0.74159      .   S
    C1328  O3149     0.74159      .   S
    C1313  O3149     0.74159      .   S
    C1339  O3150     0.74159      .   S
    C1324  O3150     0.74159      .   S
    C1340  O3151     0.74159      .   S
    C1325  O3151     0.74159      .   S
    C522   O3152     0.62657      .   S
    C672   O3152     0.62657      .   S
    C525   O3153     0.62657      .   S
    C675   O3153     0.62657      .   S
    C526   O3154     0.62657      .   S
    C676   O3154     0.62657      .   S
    C521   O3155     0.62657      .   S
    C671   O3155     0.62657      .   S
    C731   O3156     0.63070      .   S
    C296   O3156     0.63070      .   S
    C732   O3157     0.63070      .   S
    C297   O3157     0.63070      .   S
    C735   O3158     0.63070      .   S
    C300   O3158     0.63070      .   S
    C736   O3159     0.63070      .   S
    C301   O3159     0.63070      .   S
    C20    O3160     0.61492      .   S
    C100   O3160     0.61492      .   S
    C20    O3161     1.08654      .   S
    C1     O3161     1.08654      .   S
    C438   O3162     0.61492      .   S
    C1638  O3162     0.61492      .   S
    C438   O3163     1.08654      .   S
    C153   O3163     1.08654      .   S
    C426   O3164     0.61492      .   S
    C1626  O3164     0.61492      .   S
    C426   O3165     1.08654      .   S
    C141   O3165     1.08654      .   S
    C437   O3166     0.61492      .   S
    C1637  O3166     0.61492      .   S
    C437   O3167     1.08654      .   S
    C152   O3167     1.08654      .   S
    C671   O3168     0.63641      .   S
    C251   O3168     0.63641      .   S
    C672   O3169     0.63641      .   S
    C252   O3169     0.63641      .   S
    C675   O3170     0.63641      .   S
    C255   O3170     0.63641      .   S
    C676   O3171     0.63641      .   S
    C256   O3171     0.63641      .   S
    C69    O3172     0.62718      .   S
    C41    O3172     0.62718      .   S
    C1172  O3173     0.62718      .   S
    C752   O3173     0.62718      .   S
    C1173  O3174     0.62718      .   S
    C753   O3174     0.62718      .   S
    C1161  O3175     0.62718      .   S
    C741   O3175     0.62718      .   S
    C1     O3176     1.11527      .   S
    C66    O3176     1.11527      .   S
    C1     O3177     1.02309  1_655   S
    C63    O3177     1.02309      .   S
    C141   O3178     1.11527      .   S
    C1116  O3178     1.11527      .   S
    C141   O3179     1.02309  1_455   S
    C1071  O3179     1.02309      .   S
    C152   O3180     1.11527      .   S
    C1127  O3180     1.11527      .   S
    C152   O3181     1.02309      .   S
    C1082  O3181     1.02309      .   S
    C153   O3182     1.11527      .   S
    C1128  O3182     1.11527      .   S
    C153   O3183     1.02309      .   S
    C1083  O3183     1.02309      .   S
    C41    O3184     0.63083      .   S
    C19    O3184     0.63083      .   S
    C741   O3185     0.63083      .   S
    C411   O3185     0.63083      .   S
    C752   O3186     0.63083      .   S
    C422   O3186     0.63083      .   S
    C753   O3187     0.63083      .   S
    C423   O3187     0.63083      .   S
    C30    O3188     1.10572      .   S
    C5     O3188     1.10572      .   S
    C1838  O3189     0.68792      .   S
    C1823  O3189     0.68792      .   S
    C1837  O3190     0.68792      .   S
    C1822  O3190     0.68792      .   S
    C1834  O3191     0.68792      .   S
    C1819  O3191     0.68792      .   S
    C1833  O3192     0.68792      .   S
    C1818  O3192     0.68792      .   S
    C587   O3193     1.10572      .   S
    C212   O3193     1.10572      .   S
    C576   O3194     1.10572      .   S
    C201   O3194     1.10572      .   S
    C588   O3195     1.10572      .   S
    C213   O3195     1.10572      .   S
    C4     O3196     1.07340      .   S
    C25    O3196     1.07340      .   S
    C4     O3197     1.11893      .   S
    C64    O3197     1.11893      .   S
    C4     O3198     1.03669  1_455   S
    C7     O3198     1.03669      .   S
    C186   O3199     1.07340      .   S
    C501   O3199     1.07340      .   S
    C186   O3200     1.11893      .   S
    C1086  O3200     1.11893      .   S
    C186   O3201     1.03669  1_655   S
    C231   O3201     1.03669      .   S
    C197   O3202     1.07340      .   S
    C512   O3202     1.07340      .   S
    C197   O3203     1.11893      .   S
    C1097  O3203     1.11893      .   S
    C197   O3204     1.03669      .   S
    C242   O3204     1.03669      .   S
    C198   O3205     1.07340      .   S
    C513   O3205     1.07340      .   S
    C198   O3206     1.11893      .   S
    C1098  O3206     1.11893      .   S
    C198   O3207     1.03669      .   S
    C243   O3207     1.03669      .   S
    C63    O3208     1.01682      .   S
    C5     O3208     1.01682      .   S
    C1082  O3209     1.01682      .   S
    C212   O3209     1.01682      .   S
    C1083  O3210     1.01682      .   S
    C213   O3210     1.01682      .   S
    C1071  O3211     1.01682      .   S
    C201   O3211     1.01682      .   S
    C25    O3212     0.62962      .   S
    C95    O3212     0.62962      .   S
    C501   O3213     0.62962      .   S
    C1551  O3213     0.62962      .   S
    C512   O3214     0.62962      .   S
    C1562  O3214     0.62962      .   S
    C513   O3215     0.62962      .   S
    C1563  O3215     0.62962      .   S
    C300   O3216     1.11081      .   S
    C156   O3216     1.11081      .   S
    C296   O3217     1.11081      .   S
    C168   O3217     1.11081      .   S
    C297   O3218     1.11081      .   S
    C2     O3218     1.11081      .   S
    C301   O3219     1.11081      .   S
    C167   O3219     1.11081      .   S
    C255   O3220     1.09218      .   S
    C213   O3220     1.09218      .   S
    C251   O3221     1.09218      .   S
    C201   O3221     1.09218      .   S
    C252   O3222     1.09218      .   S
    C212   O3222     1.09218      .   S
    C256   O3223     1.09218      .   S
    C5     O3223     1.09218      .   S
    C95    O3224     0.64840      .   S
    C94    O3224     0.64840      .   S
    C1562  O3225     0.64840      .   S
    C1547  O3225     0.64840      .   S
    C1551  O3226     0.64840      .   S
    C1536  O3226     0.64840      .   S
    C1563  O3227     0.64840      .   S
    C1548  O3227     0.64840      .   S
    C1523  O3228     0.48999      .   S
    C1478  O3228     0.48999      .   S
    C1522  O3229     0.48999      .   S
    C1477  O3229     0.48999      .   S
    C1535  O3230     0.48999      .   S
    C1490  O3230     0.48999      .   S
    C1534  O3231     0.48999      .   S
    C1489  O3231     0.48999      .   S
    C1325  O3232     0.67814      .   S
    C1280  O3232     0.67814      .   S
    C1325  O3233     0.67775      .   S
    C1205  O3233     0.67775      .   S
    C1313  O3234     0.67814      .   S
    C1268  O3234     0.67814      .   S
    C1313  O3235     0.67775      .   S
    C1193  O3235     0.67775      .   S
    C1312  O3236     0.67814      .   S
    C1267  O3236     0.67814      .   S
    C1312  O3237     0.67775      .   S
    C1192  O3237     0.67775      .   S
    C1324  O3238     0.67814      .   S
    C1279  O3238     0.67814      .   S
    C1324  O3239     0.67775      .   S
    C1204  O3239     0.67775      .   S
    C19    O3240     1.10477      .   S
    C2     O3240     1.10477      .   S
    C423   O3241     1.10477      .   S
    C168   O3241     1.10477      .   S
    C411   O3242     1.10477      .   S
    C156   O3242     1.10477      .   S
    C422   O3243     1.10477      .   S
    C167   O3243     1.10477      .   S
    C1507  O3244     0.49130      .   S
    C1477  O3244     0.49130      .   S
    C1520  O3245     0.49130      .   S
    C1490  O3245     0.49130      .   S
    C1508  O3246     0.49130      .   S
    C1478  O3246     0.49130      .   S
    C1519  O3247     0.49130      .   S
    C1489  O3247     0.49130      .   S
    C1268  O3248     0.66776      .   S
    C1253  O3248     0.66776      .   S
    C1267  O3249     0.66776      .   S
    C1252  O3249     0.66776      .   S
    C1279  O3250     0.66776      .   S
    C1264  O3250     0.66776      .   S
    C1280  O3251     0.66776      .   S
    C1265  O3251     0.66776      .   S
    C1477  O3252     0.48964  1_545   S
    C1492  O3252     0.48964      .   S
    C1477  O3253     0.77387      .   S
    C1372  O3253     0.77387      .   S
    C1490  O3254     0.48964  1_565   S
    C1505  O3254     0.48964      .   S
    C1490  O3255     0.77387      .   S
    C1385  O3255     0.77387      .   S
    C1478  O3256     0.48964      .   S
    C1493  O3256     0.48964      .   S
    C1478  O3257     0.77387      .   S
    C1373  O3257     0.77387      .   S
    C1489  O3258     0.48964      .   S
    C1504  O3258     0.48964      .   S
    C1489  O3259     0.77387      .   S
    C1384  O3259     0.77387      .   S
    C1819  O3260     0.81541      .   S
    C1864  O3260     0.81541      .   S
    C1819  O3261     0.78282      .   S
    C1849  O3261     0.78282      .   S
    C1822  O3262     0.81541      .   S
    C1867  O3262     0.81541      .   S
    C1822  O3263     0.78282      .   S
    C1852  O3263     0.78282      .   S
    C1823  O3264     0.81541  1_565   S
    C1868  O3264     0.81541      .   S
    C1823  O3265     0.78282      .   S
    C1853  O3265     0.78282      .   S
    C1818  O3266     0.81541  1_545   S
    C1863  O3266     0.81541      .   S
    C1818  O3267     0.78282      .   S
    C1848  O3267     0.78282      .   S
    C10    O3268     0.49995      .   S
    C9     O3268     0.49995      .   S
    C288   O3269     0.49995      .   S
    C273   O3269     0.49995      .   S
    C287   O3270     0.49995      .   S
    C272   O3270     0.49995      .   S
    C276   O3271     0.49995      .   S
    C261   O3271     0.49995      .   S
    C1460  O3272     0.48916      .   S
    C1430  O3272     0.48916      .   S
    C1459  O3273     0.48916      .   S
    C1429  O3273     0.48916      .   S
    C1448  O3274     0.48916      .   S
    C1418  O3274     0.48916      .   S
    C1447  O3275     0.48916      .   S
    C1417  O3275     0.48916      .   S
    C9     O3276     1.11420      .   S
    C3     O3276     1.11420  1_655   S
    C273   O3277     1.11420      .   S
    C183   O3277     1.11420      .   S
    C261   O3278     1.11420      .   S
    C171   O3278     1.11420  1_455   S
    C272   O3279     1.11420      .   S
    C182   O3279     1.11420      .   S
    C6     O3280     1.03564      .   S
    C2     O3280     1.03564      .   S
    C6     O3281     1.03380      .   S
    C3     O3281     1.03380      .   S
    C228   O3282     1.03564      .   S
    C168   O3282     1.03564      .   S
    C228   O3283     1.03380      .   S
    C183   O3283     1.03380      .   S
    C227   O3284     1.03564      .   S
    C167   O3284     1.03564      .   S
    C227   O3285     1.03380      .   S
    C182   O3285     1.03380      .   S
    C216   O3286     1.03564      .   S
    C156   O3286     1.03564      .   S
    C216   O3287     1.03380      .   S
    C171   O3287     1.03380      .   S
    C1775  O3288     0.74769      .   S
    C1715  O3288     0.74769      .   S
    C1774  O3289     0.74769      .   S
    C1714  O3289     0.74769      .   S
    C1763  O3290     0.74769      .   S
    C1703  O3290     0.74769      .   S
    C1762  O3291     0.74769      .   S
    C1702  O3291     0.74769      .   S
    C5     O3292     1.10126      .   S
    C16    O3292     1.10126      .   S
    C5     O3293     1.10693      .   S
    C382   O3293     1.10693      .   S
    C5     O3294     1.01980      .   S
    C62    O3294     1.01980      .   S
    C212   O3295     1.10126      .   S
    C377   O3295     1.10126      .   S
    C212   O3296     1.10693      .   S
    C394   O3296     1.10693      .   S
    C212   O3297     1.01980      .   S
    C1067  O3297     1.01980      .   S
    C201   O3298     1.10126      .   S
    C366   O3298     1.10126      .   S
    C201   O3299     1.10693      .   S
    C395   O3299     1.10693      .   S
    C201   O3300     1.01980      .   S
    C1056  O3300     1.01980      .   S
    C213   O3301     1.10126      .   S
    C378   O3301     1.10126      .   S
    C213   O3302     1.10693      .   S
    C383   O3302     1.10693      .   S
    C213   O3303     1.01980      .   S
    C1068  O3303     1.01980      .   S
    C98    O3304     0.67063      .   S
    C103   O3304     0.67063  1_655   S
    C1596  O3305     0.67063      .   S
    C1671  O3305     0.67063  1_455   S
    C1607  O3306     0.67063      .   S
    C1682  O3306     0.67063      .   S
    C1608  O3307     0.67063      .   S
    C1683  O3307     0.67063      .   S
    C1714  O3308     0.73904      .   S
    C1759  O3308     0.73904      .   S
    C1703  O3309     0.73904      .   S
    C1748  O3309     0.73904      .   S
    C1702  O3310     0.73904      .   S
    C1747  O3310     0.73904      .   S
    C1715  O3311     0.73904      .   S
    C1760  O3311     0.73904      .   S
    C1205  O3312     0.47408  1_565   S
    C1220  O3312     0.47408      .   S
    C1205  O3313     0.69648      .   S
    C845   O3313     0.69648      .   S
    C1204  O3314     0.47408      .   S
    C1219  O3314     0.47408      .   S
    C1204  O3315     0.69648      .   S
    C844   O3315     0.69648      .   S
    C1192  O3316     0.47408  1_545   S
    C1207  O3316     0.47408      .   S
    C1192  O3317     0.69648      .   S
    C832   O3317     0.69648      .   S
    C1193  O3318     0.47408      .   S
    C1208  O3318     0.47408      .   S
    C1193  O3319     0.69648      .   S
    C833   O3319     0.69648      .   S
    C1463  O3320     0.49002      .   S
    C1418  O3320     0.49002      .   S
    C1474  O3321     0.49002      .   S
    C1429  O3321     0.49002      .   S
    C1475  O3322     0.49002      .   S
    C1430  O3322     0.49002      .   S
    C1462  O3323     0.49002      .   S
    C1417  O3323     0.49002      .   S
    C2     O3324     1.03548      .   S
    C7     O3324     1.03548      .   S
    C2     O3325     1.10936      .   S
    C349   O3325     1.10936      .   S
    C2     O3326     1.10108      .   S
    C28    O3326     1.10108      .   S
    C168   O3327     1.03548      .   S
    C243   O3327     1.03548      .   S
    C168   O3328     1.10936      .   S
    C350   O3328     1.10936      .   S
    C168   O3329     1.10108      .   S
    C558   O3329     1.10108      .   S
    C156   O3330     1.03548      .   S
    C231   O3330     1.03548      .   S
    C156   O3331     1.10936      .   S
    C338   O3331     1.10936      .   S
    C156   O3332     1.10108      .   S
    C546   O3332     1.10108      .   S
    C167   O3333     1.03548      .   S
    C242   O3333     1.03548      .   S
    C167   O3334     1.10936      .   S
    C337   O3334     1.10936      .   S
    C167   O3335     1.10108      .   S
    C557   O3335     1.10108      .   S
    C64    O3336     0.50026      .   S
    C65    O3336     0.50026      .   S
    C1098  O3337     0.50026      .   S
    C1113  O3337     0.50026      .   S
    C1097  O3338     0.50026      .   S
    C1112  O3338     0.50026      .   S
    C1086  O3339     0.50026      .   S
    C1101  O3339     0.50026      .   S
    C1926  O3340     0.64568      .   S
    C1896  O3340     0.64568      .   S
    C1911  O3341     0.50001      .   S
    C1941  O3341     0.50001      .   S
    C1939  O3342     0.64568      .   S
    C1909  O3342     0.64568      .   S
    C1927  O3343     0.64568      .   S
    C1897  O3343     0.64568      .   S
    C1938  O3344     0.64568      .   S
    C1908  O3344     0.64568      .   S
    C1912  O3345     0.50001      .   S
    C1942  O3345     0.50001      .   S
    C1924  O3346     0.50001      .   S
    C1954  O3346     0.50001      .   S
    C1923  O3347     0.50001      .   S
    C1953  O3347     0.50001      .   S
    C1418  O3348     0.69883      .   S
    C1373  O3348     0.69883      .   S
    C1418  O3349     0.49021      .   S
    C1433  O3349     0.49021      .   S
    C1417  O3350     0.69883      .   S
    C1372  O3350     0.69883      .   S
    C1417  O3351     0.49021      .   S
    C1432  O3351     0.49021      .   S
    C1430  O3352     0.69883      .   S
    C1385  O3352     0.69883      .   S
    C1430  O3353     0.49021      .   S
    C1445  O3353     0.49021      .   S
    C1429  O3354     0.69883      .   S
    C1384  O3354     0.69883      .   S
    C1429  O3355     0.49021      .   S
    C1444  O3355     0.49021      .   S
    C1264  O3356     0.68692      .   S
    C844   O3356     0.68692      .   S
    C1252  O3357     0.68692      .   S
    C832   O3357     0.68692      .   S
    C1253  O3358     0.68692      .   S
    C833   O3358     0.68692      .   S
    C1265  O3359     0.68692      .   S
    C845   O3359     0.68692      .   S
    C103   O3360     0.64820      .   S
    C29    O3360     0.64820      .   S
    C1671  O3361     0.64820      .   S
    C561   O3361     0.64820      .   S
    C1682  O3362     0.64820      .   S
    C572   O3362     0.64820      .   S
    C1683  O3363     0.64820      .   S
    C573   O3363     0.64820      .   S
    C1372  O3364     0.66899      .   S
    C1387  O3364     0.66899      .   S
    C1373  O3365     0.66899      .   S
    C1388  O3365     0.66899      .   S
    C1385  O3366     0.66899      .   S
    C1400  O3366     0.66899      .   S
    C1384  O3367     0.66899      .   S
    C1399  O3367     0.66899      .   S
    C16    O3368     0.63871      .   S
    C32    O3368     0.63871      .   S
    C366   O3369     0.63871      .   S
    C606   O3369     0.63871      .   S
    C377   O3370     0.63871      .   S
    C617   O3370     0.63871      .   S
    C378   O3371     0.63871      .   S
    C618   O3371     0.63871      .   S
    C832   O3372     0.74157      .   S
    C952   O3372     0.74157      .   S
    C833   O3373     0.74157      .   S
    C953   O3373     0.74157      .   S
    C844   O3374     0.74157      .   S
    C964   O3374     0.74157      .   S
    C845   O3375     0.74157      .   S
    C965   O3375     0.74157      .   S
    C29    O3376     1.08330      .   S
    C3     O3376     1.08330      .   S
    C561   O3377     1.08330      .   S
    C171   O3377     1.08330      .   S
    C573   O3378     1.08330      .   S
    C183   O3378     1.08330      .   S
    C572   O3379     1.08330      .   S
    C182   O3379     1.08330      .   S
    C349   O3380     0.63156      .   S
    C784   O3380     0.63156      .   S
    C350   O3381     0.63156      .   S
    C785   O3381     0.63156      .   S
    C337   O3382     0.63156      .   S
    C772   O3382     0.63156      .   S
    C338   O3383     0.63156      .   S
    C773   O3383     0.63156      .   S
    C96    O3384     0.64070      .   S
    C97    O3384     0.64070      .   S
    C1577  O3385     0.64070      .   S
    C1592  O3385     0.64070      .   S
    C1566  O3386     0.64070      .   S
    C1581  O3386     0.64070      .   S
    C1578  O3387     0.64070      .   S
    C1593  O3387     0.64070      .   S
    C382   O3388     0.63021      .   S
    C787   O3388     0.63021      .   S
    C394   O3389     0.63021      .   S
    C799   O3389     0.63021      .   S
    C395   O3390     0.63021      .   S
    C800   O3390     0.63021      .   S
    C383   O3391     0.63021      .   S
    C788   O3391     0.63021      .   S
    C62    O3392     1.02664      .   S
    C0     O3392     1.02664      .   S
    C1056  O3393     1.02664      .   S
    C126   O3393     1.02664      .   S
    C1067  O3394     1.02664      .   S
    C137   O3394     1.02664      .   S
    C1068  O3395     1.02664      .   S
    C138   O3395     1.02664      .   S
    C3     O3396     1.11765      .   S
    C22    O3396     1.11765      .   S
    C3     O3397     1.08709      .   S
    C359   O3397     1.08709      .   S
    C182   O3398     1.11765      .   S
    C467   O3398     1.11765      .   S
    C182   O3399     1.08709      .   S
    C355   O3399     1.08709      .   S
    C183   O3400     1.11765      .   S
    C468   O3400     1.11765      .   S
    C183   O3401     1.08709      .   S
    C354   O3401     1.08709      .   S
    C171   O3402     1.11765      .   S
    C456   O3402     1.11765      .   S
    C171   O3403     1.08709      .   S
    C358   O3403     1.08709      .   S
    C28    O3404     0.62557      .   S
    C42    O3404     0.62557      .   S
    C546   O3405     0.62557      .   S
    C756   O3405     0.62557      .   S
    C557   O3406     0.62557      .   S
    C767   O3406     0.62557      .   S
    C558   O3407     0.62557      .   S
    C768   O3407     0.62557      .   S
    C101   O3408     0.67178      .   S
    C99    O3408     0.67178      .   S
    C101   O3409     0.63832      .   S
    C33    O3409     0.63832      .   S
    C1652  O3410     0.67178      .   S
    C1622  O3410     0.67178      .   S
    C1652  O3411     0.63832      .   S
    C632   O3411     0.63832      .   S
    C1653  O3412     0.67178      .   S
    C1623  O3412     0.67178      .   S
    C1653  O3413     0.63832      .   S
    C633   O3413     0.63832      .   S
    C1641  O3414     0.67178      .   S
    C1611  O3414     0.67178      .   S
    C1641  O3415     0.63832      .   S
    C621   O3415     0.63832      .   S
    C99    O3416     0.73646      .   S
    C102   O3416     0.73646      .   S
    C1622  O3417     0.73646      .   S
    C1667  O3417     0.73646      .   S
    C1611  O3418     0.73646      .   S
    C1656  O3418     0.73646      .   S
    C1623  O3419     0.73646      .   S
    C1668  O3419     0.73646      .   S
    C772   O3420     0.63432      .   S
    C397   O3420     0.63432      .   S
    C772   O3421     0.73229      .   S
    C652   O3421     0.73229      .   S
    C785   O3422     0.63432      .   S
    C410   O3422     0.63432      .   S
    C785   O3423     0.73229      .   S
    C665   O3423     0.73229      .   S
    C1399  O3424     0.47541      .   S
    C1414  O3424     0.47541      .   S
    C1399  O3425     0.59160      .   S
    C1369  O3425     0.59160      .   S
    C773   O3426     0.63432      .   S
    C398   O3426     0.63432      .   S
    C773   O3427     0.73229      .   S
    C653   O3427     0.73229      .   S
    C1388  O3428     0.47541      .   S
    C1403  O3428     0.47541      .   S
    C1388  O3429     0.59160      .   S
    C1358  O3429     0.59160      .   S
    C1387  O3430     0.47541      .   S
    C1402  O3430     0.47541  1_565   S
    C1387  O3431     0.59160      .   S
    C1357  O3431     0.59160      .   S
    C1400  O3432     0.47541      .   S
    C1415  O3432     0.47541  1_545   S
    C1400  O3433     0.59160      .   S
    C1370  O3433     0.59160      .   S
    C784   O3434     0.63432      .   S
    C409   O3434     0.63432      .   S
    C784   O3435     0.73229      .   S
    C664   O3435     0.73229      .   S
    C1055  O3436     0.68928      .   S
    C665   O3436     0.68928      .   S
    C1055  O3437     0.66946      .   S
    C1190  O3437     0.66946      .   S
    C1054  O3438     0.68928      .   S
    C664   O3438     0.68928      .   S
    C1054  O3439     0.66946      .   S
    C1189  O3439     0.66946      .   S
    C1043  O3440     0.68928      .   S
    C653   O3440     0.68928      .   S
    C1043  O3441     0.66946      .   S
    C1178  O3441     0.66946      .   S
    C1042  O3442     0.68928      .   S
    C652   O3442     0.68928      .   S
    C1042  O3443     0.66946      .   S
    C1177  O3443     0.66946      .   S
    C618   O3444     0.62089      .   S
    C453   O3444     0.62089      .   S
    C618   O3445     0.74639      .   S
    C693   O3445     0.74639      .   S
    C32    O3446     0.62089      .   S
    C21    O3446     0.62089      .   S
    C32    O3447     0.74639      .   S
    C37    O3447     0.74639      .   S
    C606   O3448     0.62089      .   S
    C441   O3448     0.62089      .   S
    C606   O3449     0.74639      .   S
    C681   O3449     0.74639      .   S
    C617   O3450     0.62089      .   S
    C452   O3450     0.62089      .   S
    C617   O3451     0.74639      .   S
    C692   O3451     0.74639      .   S
    C0     O3452     1.12542  1_455   S
    C31    O3452     1.12542      .   S
    C126   O3453     1.12542  1_655   S
    C591   O3453     1.12542      .   S
    C137   O3454     1.12542      .   S
    C602   O3454     1.12542      .   S
    C138   O3455     1.12542      .   S
    C603   O3455     1.12542      .   S
    C22    O3456     0.49897      .   S
    C23    O3456     0.49897      .   S
    C468   O3457     0.49897      .   S
    C483   O3457     0.49897      .   S
    C456   O3458     0.49897      .   S
    C471   O3458     0.49897      .   S
    C467   O3459     0.49897      .   S
    C482   O3459     0.49897      .   S
    C33    O3460     0.63579      .   S
    C97    O3460     0.63579      .   S
    C633   O3461     0.63579      .   S
    C1593  O3461     0.63579      .   S
    C632   O3462     0.63579      .   S
    C1592  O3462     0.63579      .   S
    C621   O3463     0.63579      .   S
    C1581  O3463     0.63579      .   S
    C1799  O3464     0.95565      .   S
    C1777  O3464     0.95565      .   S
    C1800  O3465     0.95565      .   S
    C1778  O3465     0.95565      .   S
    C1811  O3466     0.95565      .   S
    C1789  O3466     0.95565      .   S
    C1812  O3467     0.95565      .   S
    C1790  O3467     0.95565      .   S
    C787   O3468     0.62882      .   S
    C322   O3468     0.62882      .   S
    C787   O3469     0.70882      .   S
    C922   O3469     0.70882      .   S
    C788   O3470     0.62882      .   S
    C323   O3470     0.62882      .   S
    C788   O3471     0.70882      .   S
    C923   O3471     0.70882      .   S
    C799   O3472     0.62882      .   S
    C334   O3472     0.62882      .   S
    C799   O3473     0.70882      .   S
    C934   O3473     0.70882      .   S
    C800   O3474     0.62882      .   S
    C335   O3474     0.62882      .   S
    C800   O3475     0.70882      .   S
    C935   O3475     0.70882      .   S
    C665   O3476     0.68565      .   S
    C1010  O3476     0.68565      .   S
    C664   O3477     0.68565      .   S
    C1009  O3477     0.68565      .   S
    C653   O3478     0.68565      .   S
    C998   O3478     0.68565      .   S
    C652   O3479     0.68565      .   S
    C997   O3479     0.68565      .   S
    C767   O3480     0.62937      .   S
    C602   O3480     0.62937      .   S
    C767   O3481     0.74639      .   S
    C707   O3481     0.74639      .   S
    C42    O3482     0.62937      .   S
    C31    O3482     0.62937      .   S
    C42    O3483     0.74639      .   S
    C38    O3483     0.74639      .   S
    C768   O3484     0.62937      .   S
    C603   O3484     0.62937      .   S
    C768   O3485     0.74639      .   S
    C708   O3485     0.74639      .   S
    C756   O3486     0.62937      .   S
    C591   O3486     0.62937      .   S
    C756   O3487     0.74639      .   S
    C696   O3487     0.74639      .   S
    C1190  O3488     0.68334      .   S
    C1310  O3488     0.68334      .   S
    C1189  O3489     0.68334      .   S
    C1309  O3489     0.68334      .   S
    C1178  O3490     0.68334      .   S
    C1298  O3490     0.68334      .   S
    C1177  O3491     0.68334      .   S
    C1297  O3491     0.68334      .   S
    C953   O3492     0.64385      .   S
    C638   O3492     0.64385      .   S
    C953   O3493     0.64134      .   S
    C488   O3493     0.64134      .   S
    C952   O3494     0.64385      .   S
    C637   O3494     0.64385  1_565   S
    C952   O3495     0.64134      .   S
    C487   O3495     0.64134      .   S
    C964   O3496     0.64385      .   S
    C649   O3496     0.64385      .   S
    C964   O3497     0.64134      .   S
    C499   O3497     0.64134      .   S
    C965   O3498     0.64385      .   S
    C650   O3498     0.64385  1_545   S
    C965   O3499     0.64134      .   S
    C500   O3499     0.64134      .   S
    C860   O3500     0.70984      .   S
    C935   O3500     0.70984      .   S
    C860   O3501     0.71013      .   S
    C875   O3501     0.71013      .   S
    C847   O3502     0.70984      .   S
    C922   O3502     0.70984      .   S
    C847   O3503     0.71013      .   S
    C862   O3503     0.71013      .   S
    C848   O3504     0.70984      .   S
    C923   O3504     0.70984      .   S
    C848   O3505     0.71013      .   S
    C863   O3505     0.71013      .   S
    C859   O3506     0.70984      .   S
    C934   O3506     0.70984      .   S
    C859   O3507     0.71013      .   S
    C874   O3507     0.71013      .   S
    C74    O3508     0.47524      .   S
    C73    O3508     0.47524      .   S
    C1248  O3509     0.47524      .   S
    C1233  O3509     0.47524      .   S
    C1247  O3510     0.47524      .   S
    C1232  O3510     0.47524      .   S
    C1236  O3511     0.47524      .   S
    C1221  O3511     0.47524      .   S
    C816   O3512     0.47555      .   S
    C801   O3512     0.47555      .   S
    C827   O3513     0.47555      .   S
    C812   O3513     0.47555      .   S
    C46    O3514     0.47555      .   S
    C45    O3514     0.47555      .   S
    C828   O3515     0.47555      .   S
    C813   O3515     0.47555      .   S
    C37    O3516     0.67429      .   S
    C73    O3516     0.67429      .   S
    C37    O3517     0.66232      .   S
    C60    O3517     0.66232      .   S
    C681   O3518     0.67429      .   S
    C1221  O3518     0.67429      .   S
    C681   O3519     0.66232      .   S
    C1026  O3519     0.66232      .   S
    C692   O3520     0.67429      .   S
    C1232  O3520     0.67429      .   S
    C692   O3521     0.66232      .   S
    C1037  O3521     0.66232      .   S
    C693   O3522     0.67429      .   S
    C1233  O3522     0.67429      .   S
    C693   O3523     0.66232      .   S
    C1038  O3523     0.66232      .   S
    C935   O3524     0.70950      .   S
    C905   O3524     0.70950      .   S
    C934   O3525     0.70950      .   S
    C904   O3525     0.70950      .   S
    C923   O3526     0.70950      .   S
    C893   O3526     0.70950      .   S
    C922   O3527     0.70950      .   S
    C892   O3527     0.70950      .   S
    C73    O3528     0.69373      .   S
    C56    O3528     0.69373      .   S
    C1221  O3529     0.69373      .   S
    C966   O3529     0.69373      .   S
    C1233  O3530     0.69373      .   S
    C978   O3530     0.69373      .   S
    C1232  O3531     0.69373      .   S
    C977   O3531     0.69373      .   S
    C499   O3532     1.09931      .   S
    C199   O3532     1.09931      .   S
    C500   O3533     1.09931      .   S
    C200   O3533     1.09931      .   S
    C487   O3534     1.09931      .   S
    C187   O3534     1.09931      .   S
    C488   O3535     1.09931      .   S
    C188   O3535     1.09931      .   S
    C45    O3536     0.69229      .   S
    C38    O3536     0.69229      .   S
    C45    O3537     0.67946      .   S
    C81    O3537     0.67946      .   S
    C801   O3538     0.69229      .   S
    C696   O3538     0.69229      .   S
    C801   O3539     0.67946      .   S
    C1341  O3539     0.67946      .   S
    C813   O3540     0.69229      .   S
    C708   O3540     0.69229      .   S
    C813   O3541     0.67946      .   S
    C1353  O3541     0.67946      .   S
    C812   O3542     0.69229      .   S
    C707   O3542     0.69229      .   S
    C812   O3543     0.67946      .   S
    C1352  O3543     0.67946      .   S
    C708   O3544     0.66080      .   S
    C1293  O3544     0.66080      .   S
    C696   O3545     0.66080      .   S
    C1281  O3545     0.66080      .   S
    C707   O3546     0.66080      .   S
    C1292  O3546     0.66080      .   S
    C38    O3547     0.66080      .   S
    C77    O3547     0.66080      .   S
    C875   O3548     0.71020      .   S
    C890   O3548     0.71020      .   S
    C874   O3549     0.71020      .   S
    C889   O3549     0.71020      .   S
    C863   O3550     0.71020      .   S
    C878   O3550     0.71020      .   S
    C862   O3551     0.71020      .   S
    C877   O3551     0.71020      .   S
    C1010  O3552     0.69020      .   S
    C1310  O3552     0.69020      .   S
    C1010  O3553     0.47464      .   S
    C1025  O3553     0.47464      .   S
    C1009  O3554     0.69020      .   S
    C1309  O3554     0.69020      .   S
    C1009  O3555     0.47464      .   S
    C1024  O3555     0.47464      .   S
    C998   O3556     0.69020      .   S
    C1298  O3556     0.69020      .   S
    C998   O3557     0.47464      .   S
    C1013  O3557     0.47464      .   S
    C997   O3558     0.69020      .   S
    C1297  O3558     0.69020      .   S
    C997   O3559     0.47464      .   S
    C1012  O3559     0.47464      .   S
    C1310  O3560     0.73722      .   S
    C1160  O3560     0.73722      .   S
    C1297  O3561     0.73722      .   S
    C1147  O3561     0.73722      .   S
    C1309  O3562     0.73722      .   S
    C1159  O3562     0.73722      .   S
    C1298  O3563     0.73722      .   S
    C1148  O3563     0.73722      .   S
    C124   O3564     0.57252      .   S
    C118   O3564     0.57252      .   S
    C124   O3565     0.66089      .   S
    C117   O3565     0.66089      .   S
    C118   O3566     0.57252  1_455   S
    C1970  O3566     0.57252      .   S
    C1970  O3567     0.66089      .   S
    C1873  O3567     0.66089      .   S
    C1982  O3568     0.57252      .   S
    C1893  O3568     0.57252      .   S
    C1982  O3569     0.66089      .   S
    C1885  O3569     0.66089      .   S
    C1893  O3570     0.57252  1_545   S
    C1981  O3570     0.57252      .   S
    C1981  O3571     0.66089      .   S
    C1884  O3571     0.66089      .   S
    C355   O3572     0.64194      .   S
    C1330  O3572     0.64194      .   S
    C359   O3573     0.64194      .   S
    C1334  O3573     0.64194  1_455   S
    C358   O3574     0.64194      .   S
    C1333  O3574     0.64194  1_655   S
    C354   O3575     0.64194      .   S
    C1329  O3575     0.64194      .   S
    C60    O3576     0.65843      .   S
    C57    O3576     0.65843      .   S
    C1038  O3577     0.65843      .   S
    C993   O3577     0.65843      .   S
    C1026  O3578     0.65843      .   S
    C981   O3578     0.65843      .   S
    C1037  O3579     0.65843      .   S
    C992   O3579     0.65843      .   S
    C713   O3580     0.63049      .   S
    C1148  O3580     0.63049      .   S
    C713   O3581     1.12249      .   S
    C143   O3581     1.12249      .   S
    C724   O3582     0.63049      .   S
    C1159  O3582     0.63049      .   S
    C724   O3583     1.12249      .   S
    C154   O3583     1.12249      .   S
    C725   O3584     0.63049      .   S
    C1160  O3584     0.63049      .   S
    C725   O3585     1.12249      .   S
    C155   O3585     1.12249      .   S
    C712   O3586     0.63049      .   S
    C1147  O3586     0.63049      .   S
    C712   O3587     1.12249      .   S
    C142   O3587     1.12249      .   S
    C538   O3588     0.63920      .   S
    C1333  O3588     0.63920      .   S
    C534   O3589     0.63920      .   S
    C1329  O3589     0.63920      .   S
    C539   O3590     0.63920      .   S
    C1334  O3590     0.63920      .   S
    C535   O3591     0.63920      .   S
    C1330  O3591     0.63920      .   S
    C56    O3592     0.65538      .   S
    C57    O3592     0.65538      .   S
    C56    O3593     0.74991      .   S
    C36    O3593     0.74991      .   S
    C977   O3594     0.65538      .   S
    C992   O3594     0.65538      .   S
    C977   O3595     0.74991      .   S
    C677   O3595     0.74991      .   S
    C978   O3596     0.65538      .   S
    C993   O3596     0.65538      .   S
    C978   O3597     0.74991      .   S
    C678   O3597     0.74991      .   S
    C966   O3598     0.65538      .   S
    C981   O3598     0.65538      .   S
    C966   O3599     0.74991      .   S
    C666   O3599     0.74991      .   S
    C893   O3600     0.71011      .   S
    C878   O3600     0.71011      .   S
    C893   O3601     0.47583      .   S
    C908   O3601     0.47583      .   S
    C905   O3602     0.71011      .   S
    C890   O3602     0.71011      .   S
    C905   O3603     0.47583      .   S
    C920   O3603     0.47583      .   S
    C892   O3604     0.71011      .   S
    C877   O3604     0.71011      .   S
    C892   O3605     0.47583      .   S
    C907   O3605     0.47583      .   S
    C904   O3606     0.71011      .   S
    C889   O3606     0.71011      .   S
    C904   O3607     0.47583      .   S
    C919   O3607     0.47583      .   S
    C81    O3608     0.75222      .   S
    C40    O3608     0.75222      .   S
    C81    O3609     0.66971      .   S
    C54    O3609     0.66971      .   S
    C1341  O3610     0.75222      .   S
    C726   O3610     0.75222      .   S
    C1341  O3611     0.66971      .   S
    C936   O3611     0.66971      .   S
    C1352  O3612     0.75222      .   S
    C737   O3612     0.75222      .   S
    C1352  O3613     0.66971      .   S
    C947   O3613     0.66971      .   S
    C1353  O3614     0.75222      .   S
    C738   O3614     0.75222      .   S
    C1353  O3615     0.66971      .   S
    C948   O3615     0.66971      .   S
    C107   O3616     0.57063      .   S
    C114   O3616     0.57063      .   S
    C1132  O3617     0.50080      .   S
    C1117  O3617     0.50080      .   S
    C1731  O3618     0.57063      .   S
    C1828  O3618     0.57063      .   S
    C1133  O3619     0.50080      .   S
    C1118  O3619     0.50080      .   S
    C1742  O3620     0.57063      .   S
    C1839  O3620     0.57063      .   S
    C1743  O3621     0.57063      .   S
    C1840  O3621     0.57063      .   S
    C1144  O3622     0.50080      .   S
    C1129  O3622     0.50080      .   S
    C1145  O3623     0.50080      .   S
    C1130  O3623     0.50080      .   S
    C77    O3624     0.66010      .   S
    C54    O3624     0.66010      .   S
    C1281  O3625     0.66010      .   S
    C936   O3625     0.66010      .   S
    C1292  O3626     0.66010      .   S
    C947   O3626     0.66010      .   S
    C1293  O3627     0.66010      .   S
    C948   O3627     0.66010      .   S
    C1160  O3628     0.63764      .   S
    C590   O3628     0.63764      .   S
    C12    O3629     0.63386      .   S
    C40    O3629     0.63386      .   S
    C1147  O3630     0.63764      .   S
    C577   O3630     0.63764      .   S
    C1148  O3631     0.63764      .   S
    C578   O3631     0.63764      .   S
    C1159  O3632     0.63764      .   S
    C589   O3632     0.63764      .   S
    C306   O3633     0.63386      .   S
    C726   O3633     0.63386      .   S
    C317   O3634     0.63386      .   S
    C737   O3634     0.63386      .   S
    C318   O3635     0.63386      .   S
    C738   O3635     0.63386      .   S
    C877   O3636     0.72936      .   S
    C742   O3636     0.72936      .   S
    C878   O3637     0.72936      .   S
    C743   O3637     0.72936      .   S
    C889   O3638     0.72936      .   S
    C754   O3638     0.72936      .   S
    C890   O3639     0.72936      .   S
    C755   O3639     0.72936      .   S
    C1699  O3640     0.62613      .   S
    C1639  O3640     0.62613      .   S
    C1688  O3641     0.62613      .   S
    C1628  O3641     0.62613      .   S
    C1687  O3642     0.62613      .   S
    C1627  O3642     0.62613      .   S
    C1700  O3643     0.62613      .   S
    C1640  O3643     0.62613      .   S
    C125   O3644     0.89817      .   S
    C117   O3644     0.89817  1_455   S
    C1997  O3645     0.89817      .   S
    C1885  O3645     0.89817      .   S
    C1985  O3646     0.89817      .   S
    C1873  O3646     0.89817  1_655   S
    C1996  O3647     0.89817      .   S
    C1884  O3647     0.89817      .   S
    C1329  O3648     0.74159      .   S
    C1314  O3648     0.74159      .   S
    C1330  O3649     0.74159      .   S
    C1315  O3649     0.74159      .   S
    C1333  O3650     0.74159  1_655   S
    C1318  O3650     0.74159      .   S
    C1334  O3651     0.74159  1_455   S
    C1319  O3651     0.74159      .   S
    C26    O3652     0.62657      .   S
    C36    O3652     0.62657      .   S
    C527   O3653     0.62657      .   S
    C677   O3653     0.62657      .   S
    C528   O3654     0.62657      .   S
    C678   O3654     0.62657      .   S
    C516   O3655     0.62657      .   S
    C666   O3655     0.62657      .   S
    C737   O3656     0.63070      .   S
    C302   O3656     0.63070      .   S
    C726   O3657     0.63070      .   S
    C291   O3657     0.63070      .   S
    C40    O3658     0.63070      .   S
    C11    O3658     0.63070      .   S
    C738   O3659     0.63070      .   S
    C303   O3659     0.63070      .   S
    C439   O3660     0.61492      .   S
    C1639  O3660     0.61492      .   S
    C439   O3661     1.08654      .   S
    C154   O3661     1.08654      .   S
    C440   O3662     0.61492      .   S
    C1640  O3662     0.61492      .   S
    C440   O3663     1.08654      .   S
    C155   O3663     1.08654      .   S
    C427   O3664     0.61492      .   S
    C1627  O3664     0.61492      .   S
    C427   O3665     1.08654      .   S
    C142   O3665     1.08654      .   S
    C428   O3666     0.61492      .   S
    C1628  O3666     0.61492      .   S
    C428   O3667     1.08654      .   S
    C143   O3667     1.08654      .   S
    C36    O3668     0.63641      .   S
    C8     O3668     0.63641      .   S
    C678   O3669     0.63641      .   S
    C258   O3669     0.63641      .   S
    C666   O3670     0.63641      .   S
    C246   O3670     0.63641      .   S
    C677   O3671     0.63641      .   S
    C257   O3671     0.63641      .   S
    C1163  O3672     0.62718      .   S
    C743   O3672     0.62718      .   S
    C1174  O3673     0.62718      .   S
    C754   O3673     0.62718      .   S
    C1162  O3674     0.62718      .   S
    C742   O3674     0.62718      .   S
    C1175  O3675     0.62718      .   S
    C755   O3675     0.62718      .   S
    C155   O3676     1.11527      .   S
    C1130  O3676     1.11527  1_565   S
    C155   O3677     1.02309      .   S
    C1085  O3677     1.02309      .   S
    C142   O3678     1.11527      .   S
    C1117  O3678     1.11527  1_545   S
    C142   O3679     1.02309      .   S
    C1072  O3679     1.02309      .   S
    C143   O3680     1.11527      .   S
    C1118  O3680     1.11527      .   S
    C143   O3681     1.02309      .   S
    C1073  O3681     1.02309      .   S
    C154   O3682     1.11527      .   S
    C1129  O3682     1.11527      .   S
    C154   O3683     1.02309      .   S
    C1084  O3683     1.02309      .   S
    C742   O3684     0.63083      .   S
    C412   O3684     0.63083      .   S
    C743   O3685     0.63083      .   S
    C413   O3685     0.63083      .   S
    C754   O3686     0.63083      .   S
    C424   O3686     0.63083      .   S
    C755   O3687     0.63083      .   S
    C425   O3687     0.63083      .   S
    C114   O3688     0.68792      .   S
    C113   O3688     0.68792      .   S
    C1840  O3689     0.68792      .   S
    C1825  O3689     0.68792      .   S
    C578   O3690     1.10572      .   S
    C203   O3690     1.10572      .   S
    C589   O3691     1.10572      .   S
    C214   O3691     1.10572      .   S
    C590   O3692     1.10572      .   S
    C215   O3692     1.10572      .   S
    C577   O3693     1.10572      .   S
    C202   O3693     1.10572      .   S
    C1828  O3694     0.68792      .   S
    C1813  O3694     0.68792      .   S
    C1839  O3695     0.68792      .   S
    C1824  O3695     0.68792      .   S
    C188   O3696     1.07340      .   S
    C503   O3696     1.07340      .   S
    C188   O3697     1.11893      .   S
    C1088  O3697     1.11893      .   S
    C188   O3698     1.03669      .   S
    C233   O3698     1.03669      .   S
    C187   O3699     1.07340      .   S
    C502   O3699     1.07340      .   S
    C187   O3700     1.11893      .   S
    C1087  O3700     1.11893      .   S
    C187   O3701     1.03669      .   S
    C232   O3701     1.03669      .   S
    C199   O3702     1.07340      .   S
    C514   O3702     1.07340      .   S
    C199   O3703     1.11893      .   S
    C1099  O3703     1.11893      .   S
    C199   O3704     1.03669      .   S
    C244   O3704     1.03669      .   S
    C200   O3705     1.07340      .   S
    C515   O3705     1.07340      .   S
    C200   O3706     1.11893      .   S
    C1100  O3706     1.11893      .   S
    C200   O3707     1.03669      .   S
    C245   O3707     1.03669      .   S
    C1072  O3708     1.01682      .   S
    C202   O3708     1.01682      .   S
    C1073  O3709     1.01682      .   S
    C203   O3709     1.01682      .   S
    C1084  O3710     1.01682      .   S
    C214   O3710     1.01682      .   S
    C1085  O3711     1.01682      .   S
    C215   O3711     1.01682      .   S
    C502   O3712     0.62962      .   S
    C1552  O3712     0.62962      .   S
    C503   O3713     0.62962      .   S
    C1553  O3713     0.62962      .   S
    C514   O3714     0.62962      .   S
    C1564  O3714     0.62962      .   S
    C515   O3715     0.62962      .   S
    C1565  O3715     0.62962      .   S
    C11    O3716     1.11081  1_545   S
    C170   O3716     1.11081      .   S
    C291   O3717     1.11081  1_565   S
    C157   O3717     1.11081      .   S
    C303   O3718     1.11081      .   S
    C169   O3718     1.11081      .   S
    C302   O3719     1.11081      .   S
    C158   O3719     1.11081      .   S
    C8     O3720     1.09218      .   S
    C203   O3720     1.09218      .   S
    C258   O3721     1.09218  1_545   S
    C202   O3721     1.09218      .   S
    C257   O3722     1.09218  1_565   S
    C215   O3722     1.09218      .   S
    C246   O3723     1.09218      .   S
    C214   O3723     1.09218      .   S
    C1552  O3724     0.64840      .   S
    C1537  O3724     0.64840      .   S
    C1553  O3725     0.64840      .   S
    C1538  O3725     0.64840      .   S
    C1564  O3726     0.64840      .   S
    C1549  O3726     0.64840      .   S
    C1565  O3727     0.64840      .   S
    C1550  O3727     0.64840      .   S
    C1524  O3728     0.48999      .   S
    C1479  O3728     0.48999      .   S
    C1525  O3729     0.48999      .   S
    C1480  O3729     0.48999      .   S
    C1528  O3730     0.48999      .   S
    C1483  O3730     0.48999      .   S
    C1529  O3731     0.48999      .   S
    C1484  O3731     0.48999      .   S
    C1318  O3732     0.67814      .   S
    C1273  O3732     0.67814      .   S
    C1318  O3733     0.67775  1_455   S
    C1198  O3733     0.67775      .   S
    C1315  O3734     0.67814      .   S
    C1270  O3734     0.67814      .   S
    C1315  O3735     0.67775      .   S
    C1195  O3735     0.67775      .   S
    C1319  O3736     0.67814      .   S
    C1274  O3736     0.67814      .   S
    C1319  O3737     0.67775  1_655   S
    C1199  O3737     0.67775      .   S
    C1314  O3738     0.67814      .   S
    C1269  O3738     0.67814      .   S
    C1314  O3739     0.67775      .   S
    C1194  O3739     0.67775      .   S
    C425   O3740     1.10477      .   S
    C170   O3740     1.10477      .   S
    C424   O3741     1.10477      .   S
    C169   O3741     1.10477      .   S
    C413   O3742     1.10477      .   S
    C158   O3742     1.10477      .   S
    C412   O3743     1.10477      .   S
    C157   O3743     1.10477      .   S
    C1514  O3744     0.49130      .   S
    C1484  O3744     0.49130      .   S
    C1513  O3745     0.49130      .   S
    C1483  O3745     0.49130      .   S
    C1510  O3746     0.49130      .   S
    C1480  O3746     0.49130      .   S
    C1509  O3747     0.49130      .   S
    C1479  O3747     0.49130      .   S
    C1269  O3748     0.66776      .   S
    C1254  O3748     0.66776      .   S
    C1270  O3749     0.66776      .   S
    C1255  O3749     0.66776      .   S
    C1273  O3750     0.66776      .   S
    C1258  O3750     0.66776      .   S
    C1274  O3751     0.66776      .   S
    C1259  O3751     0.66776      .   S
    C1484  O3752     0.48964      .   S
    C1499  O3752     0.48964      .   S
    C1484  O3753     0.77387      .   S
    C1379  O3753     0.77387      .   S
    C1483  O3754     0.48964      .   S
    C1498  O3754     0.48964      .   S
    C1483  O3755     0.77387      .   S
    C1378  O3755     0.77387      .   S
    C1480  O3756     0.48964      .   S
    C1495  O3756     0.48964      .   S
    C1480  O3757     0.77387      .   S
    C1375  O3757     0.77387      .   S
    C1479  O3758     0.48964      .   S
    C1494  O3758     0.48964      .   S
    C1479  O3759     0.77387      .   S
    C1374  O3759     0.77387      .   S
    C113   O3760     0.81541      .   S
    C116   O3760     0.81541      .   S
    C113   O3761     0.78282      .   S
    C115   O3761     0.78282      .   S
    C1813  O3762     0.81541      .   S
    C1858  O3762     0.81541      .   S
    C1813  O3763     0.78282      .   S
    C1843  O3763     0.78282      .   S
    C1825  O3764     0.81541      .   S
    C1870  O3764     0.81541      .   S
    C1825  O3765     0.78282      .   S
    C1855  O3765     0.78282      .   S
    C1824  O3766     0.81541      .   S
    C1869  O3766     0.81541      .   S
    C1824  O3767     0.78282      .   S
    C1854  O3767     0.78282      .   S
    C277   O3768     0.49995      .   S
    C262   O3768     0.49995      .   S
    C278   O3769     0.49995      .   S
    C263   O3769     0.49995      .   S
    C289   O3770     0.49995      .   S
    C274   O3770     0.49995      .   S
    C290   O3771     0.49995      .   S
    C275   O3771     0.49995      .   S
    C1449  O3772     0.48916      .   S
    C1419  O3772     0.48916      .   S
    C1454  O3773     0.48916      .   S
    C1424  O3773     0.48916      .   S
    C1453  O3774     0.48916      .   S
    C1423  O3774     0.48916      .   S
    C1450  O3775     0.48916      .   S
    C1420  O3775     0.48916      .   S
    C275   O3776     1.11420      .   S
    C185   O3776     1.11420      .   S
    C274   O3777     1.11420      .   S
    C184   O3777     1.11420      .   S
    C262   O3778     1.11420      .   S
    C172   O3778     1.11420      .   S
    C263   O3779     1.11420      .   S
    C173   O3779     1.11420      .   S
    C229   O3780     1.03564      .   S
    C169   O3780     1.03564      .   S
    C229   O3781     1.03380      .   S
    C184   O3781     1.03380      .   S
    C218   O3782     1.03564      .   S
    C158   O3782     1.03564      .   S
    C218   O3783     1.03380      .   S
    C173   O3783     1.03380      .   S
    C217   O3784     1.03564      .   S
    C157   O3784     1.03564  1_545   S
    C217   O3785     1.03380      .   S
    C172   O3785     1.03380      .   S
    C230   O3786     1.03564      .   S
    C170   O3786     1.03564  1_565   S
    C230   O3787     1.03380      .   S
    C185   O3787     1.03380      .   S
    C1769  O3788     0.74769      .   S
    C1709  O3788     0.74769      .   S
    C1768  O3789     0.74769      .   S
    C1708  O3789     0.74769      .   S
    C1765  O3790     0.74769      .   S
    C1705  O3790     0.74769      .   S
    C1764  O3791     0.74769      .   S
    C1704  O3791     0.74769      .   S
    C202   O3792     1.10126      .   S
    C367   O3792     1.10126      .   S
    C202   O3793     1.10693      .   S
    C384   O3793     1.10693  1_545   S
    C202   O3794     1.01980      .   S
    C1057  O3794     1.01980      .   S
    C203   O3795     1.10126      .   S
    C368   O3795     1.10126      .   S
    C203   O3796     1.10693      .   S
    C389   O3796     1.10693      .   S
    C203   O3797     1.01980      .   S
    C1058  O3797     1.01980      .   S
    C214   O3798     1.10126      .   S
    C379   O3798     1.10126      .   S
    C214   O3799     1.10693      .   S
    C388   O3799     1.10693      .   S
    C214   O3800     1.01980      .   S
    C1069  O3800     1.01980      .   S
    C215   O3801     1.10126      .   S
    C380   O3801     1.10126      .   S
    C215   O3802     1.10693      .   S
    C385   O3802     1.10693  1_565   S
    C215   O3803     1.01980      .   S
    C1070  O3803     1.01980      .   S
    C1598  O3804     0.67063      .   S
    C1673  O3804     0.67063      .   S
    C1597  O3805     0.67063      .   S
    C1672  O3805     0.67063      .   S
    C1609  O3806     0.67063      .   S
    C1684  O3806     0.67063      .   S
    C1610  O3807     0.67063      .   S
    C1685  O3807     0.67063      .   S
    C1704  O3808     0.73904      .   S
    C1749  O3808     0.73904  1_545   S
    C1705  O3809     0.73904      .   S
    C1750  O3809     0.73904  1_565   S
    C1708  O3810     0.73904      .   S
    C1753  O3810     0.73904      .   S
    C1709  O3811     0.73904      .   S
    C1754  O3811     0.73904      .   S
    C1194  O3812     0.47408      .   S
    C1209  O3812     0.47408      .   S
    C1194  O3813     0.69648      .   S
    C834   O3813     0.69648      .   S
    C1195  O3814     0.47408      .   S
    C1210  O3814     0.47408      .   S
    C1195  O3815     0.69648      .   S
    C835   O3815     0.69648      .   S
    C1198  O3816     0.47408      .   S
    C1213  O3816     0.47408      .   S
    C1198  O3817     0.69648      .   S
    C838   O3817     0.69648  1_455   S
    C1199  O3818     0.47408      .   S
    C1214  O3818     0.47408      .   S
    C1199  O3819     0.69648      .   S
    C839   O3819     0.69648  1_655   S
    C1469  O3820     0.49002      .   S
    C1424  O3820     0.49002      .   S
    C1468  O3821     0.49002      .   S
    C1423  O3821     0.49002      .   S
    C1465  O3822     0.49002      .   S
    C1420  O3822     0.49002      .   S
    C1464  O3823     0.49002      .   S
    C1419  O3823     0.49002      .   S
    C170   O3824     1.03548      .   S
    C245   O3824     1.03548      .   S
    C170   O3825     1.10936      .   S
    C344   O3825     1.10936  1_545   S
    C170   O3826     1.10108      .   S
    C560   O3826     1.10108      .   S
    C169   O3827     1.03548      .   S
    C244   O3827     1.03548      .   S
    C169   O3828     1.10936      .   S
    C339   O3828     1.10936      .   S
    C169   O3829     1.10108      .   S
    C559   O3829     1.10108      .   S
    C158   O3830     1.03548      .   S
    C233   O3830     1.03548      .   S
    C158   O3831     1.10936      .   S
    C340   O3831     1.10936      .   S
    C158   O3832     1.10108      .   S
    C548   O3832     1.10108      .   S
    C157   O3833     1.03548      .   S
    C232   O3833     1.03548      .   S
    C157   O3834     1.10936      .   S
    C343   O3834     1.10936  1_565   S
    C157   O3835     1.10108      .   S
    C547   O3835     1.10108      .   S
    C1099  O3836     0.50026      .   S
    C1114  O3836     0.50026      .   S
    C1100  O3837     0.50026      .   S
    C1115  O3837     0.50026      .   S
    C1088  O3838     0.50026      .   S
    C1103  O3838     0.50026      .   S
    C1087  O3839     0.50026      .   S
    C1102  O3839     0.50026      .   S
    C1929  O3840     0.64568      .   S
    C1899  O3840     0.64568      .   S
    C1918  O3841     0.50001      .   S
    C1948  O3841     0.50001      .   S
    C1913  O3842     0.50001      .   S
    C1943  O3842     0.50001      .   S
    C1933  O3843     0.64568      .   S
    C1903  O3843     0.64568  1_655   S
    C1932  O3844     0.64568      .   S
    C1902  O3844     0.64568  1_455   S
    C1917  O3845     0.50001      .   S
    C1947  O3845     0.50001      .   S
    C1928  O3846     0.64568      .   S
    C1898  O3846     0.64568      .   S
    C1914  O3847     0.50001      .   S
    C1944  O3847     0.50001      .   S
    C1424  O3848     0.69883      .   S
    C1379  O3848     0.69883      .   S
    C1424  O3849     0.49021      .   S
    C1439  O3849     0.49021      .   S
    C1423  O3850     0.69883      .   S
    C1378  O3850     0.69883      .   S
    C1423  O3851     0.49021      .   S
    C1438  O3851     0.49021      .   S
    C1420  O3852     0.69883      .   S
    C1375  O3852     0.69883      .   S
    C1420  O3853     0.49021      .   S
    C1435  O3853     0.49021      .   S
    C1419  O3854     0.69883      .   S
    C1374  O3854     0.69883      .   S
    C1419  O3855     0.49021      .   S
    C1434  O3855     0.49021      .   S
    C1254  O3856     0.68692      .   S
    C834   O3856     0.68692      .   S
    C1255  O3857     0.68692      .   S
    C835   O3857     0.68692      .   S
    C1258  O3858     0.68692      .   S
    C838   O3858     0.68692      .   S
    C1259  O3859     0.68692      .   S
    C839   O3859     0.68692      .   S
    C1685  O3860     0.64820      .   S
    C575   O3860     0.64820      .   S
    C1684  O3861     0.64820      .   S
    C574   O3861     0.64820      .   S
    C1673  O3862     0.64820      .   S
    C563   O3862     0.64820      .   S
    C1672  O3863     0.64820      .   S
    C562   O3863     0.64820      .   S
    C1375  O3864     0.66899      .   S
    C1390  O3864     0.66899      .   S
    C1374  O3865     0.66899      .   S
    C1389  O3865     0.66899      .   S
    C1378  O3866     0.66899      .   S
    C1393  O3866     0.66899      .   S
    C1379  O3867     0.66899      .   S
    C1394  O3867     0.66899      .   S
    C380   O3868     0.63871      .   S
    C620   O3868     0.63871      .   S
    C379   O3869     0.63871      .   S
    C619   O3869     0.63871      .   S
    C368   O3870     0.63871      .   S
    C608   O3870     0.63871      .   S
    C367   O3871     0.63871      .   S
    C607   O3871     0.63871      .   S
    C834   O3872     0.74157      .   S
    C954   O3872     0.74157      .   S
    C835   O3873     0.74157      .   S
    C955   O3873     0.74157      .   S
    C838   O3874     0.74157      .   S
    C958   O3874     0.74157      .   S
    C839   O3875     0.74157      .   S
    C959   O3875     0.74157      .   S
    C574   O3876     1.08330      .   S
    C184   O3876     1.08330      .   S
    C575   O3877     1.08330      .   S
    C185   O3877     1.08330      .   S
    C563   O3878     1.08330      .   S
    C173   O3878     1.08330      .   S
    C562   O3879     1.08330      .   S
    C172   O3879     1.08330      .   S
    C344   O3880     0.63156      .   S
    C779   O3880     0.63156      .   S
    C343   O3881     0.63156      .   S
    C778   O3881     0.63156      .   S
    C340   O3882     0.63156      .   S
    C775   O3882     0.63156      .   S
    C339   O3883     0.63156      .   S
    C774   O3883     0.63156      .   S
    C1568  O3884     0.64070      .   S
    C1583  O3884     0.64070      .   S
    C1567  O3885     0.64070      .   S
    C1582  O3885     0.64070      .   S
    C1579  O3886     0.64070      .   S
    C1594  O3886     0.64070      .   S
    C1580  O3887     0.64070      .   S
    C1595  O3887     0.64070      .   S
    C389   O3888     0.63021      .   S
    C794   O3888     0.63021      .   S
    C385   O3889     0.63021      .   S
    C790   O3889     0.63021      .   S
    C388   O3890     0.63021      .   S
    C793   O3890     0.63021      .   S
    C384   O3891     0.63021      .   S
    C789   O3891     0.63021      .   S
    C1058  O3892     1.02664      .   S
    C128   O3892     1.02664      .   S
    C1069  O3893     1.02664      .   S
    C139   O3893     1.02664      .   S
    C1070  O3894     1.02664  1_545   S
    C140   O3894     1.02664      .   S
    C1057  O3895     1.02664  1_565   S
    C127   O3895     1.02664      .   S
    C185   O3896     1.11765      .   S
    C470   O3896     1.11765  1_565   S
    C184   O3897     1.11765      .   S
    C469   O3897     1.11765      .   S
    C173   O3898     1.11765      .   S
    C458   O3898     1.11765      .   S
    C172   O3899     1.11765      .   S
    C457   O3899     1.11765  1_545   S
    C547   O3900     0.62557      .   S
    C757   O3900     0.62557      .   S
    C560   O3901     0.62557      .   S
    C770   O3901     0.62557      .   S
    C548   O3902     0.62557      .   S
    C758   O3902     0.62557      .   S
    C559   O3903     0.62557      .   S
    C769   O3903     0.62557      .   S
    C1655  O3904     0.67178      .   S
    C1625  O3904     0.67178      .   S
    C1655  O3905     0.63832      .   S
    C635   O3905     0.63832      .   S
    C1654  O3906     0.67178      .   S
    C1624  O3906     0.67178      .   S
    C1654  O3907     0.63832      .   S
    C634   O3907     0.63832      .   S
    C1643  O3908     0.67178      .   S
    C1613  O3908     0.67178      .   S
    C1643  O3909     0.63832      .   S
    C623   O3909     0.63832      .   S
    C1642  O3910     0.67178      .   S
    C1612  O3910     0.67178      .   S
    C1642  O3911     0.63832      .   S
    C622   O3911     0.63832      .   S
    C1612  O3912     0.73646      .   S
    C1657  O3912     0.73646      .   S
    C1625  O3913     0.73646      .   S
    C1670  O3913     0.73646      .   S
    C1624  O3914     0.73646      .   S
    C1669  O3914     0.73646      .   S
    C1613  O3915     0.73646      .   S
    C1658  O3915     0.73646      .   S
    C1394  O3916     0.47541      .   S
    C1409  O3916     0.47541      .   S
    C1394  O3917     0.59160      .   S
    C1364  O3917     0.59160      .   S
    C1389  O3918     0.47541      .   S
    C1404  O3918     0.47541      .   S
    C1389  O3919     0.59160      .   S
    C1359  O3919     0.59160      .   S
    C1393  O3920     0.47541      .   S
    C1408  O3920     0.47541      .   S
    C1393  O3921     0.59160      .   S
    C1363  O3921     0.59160      .   S
    C779   O3922     0.63432      .   S
    C404   O3922     0.63432      .   S
    C779   O3923     0.73229      .   S
    C659   O3923     0.73229      .   S
    C778   O3924     0.63432      .   S
    C403   O3924     0.63432      .   S
    C778   O3925     0.73229      .   S
    C658   O3925     0.73229      .   S
    C775   O3926     0.63432      .   S
    C400   O3926     0.63432      .   S
    C775   O3927     0.73229      .   S
    C655   O3927     0.73229      .   S
    C774   O3928     0.63432      .   S
    C399   O3928     0.63432      .   S
    C774   O3929     0.73229      .   S
    C654   O3929     0.73229      .   S
    C1390  O3930     0.47541      .   S
    C1405  O3930     0.47541      .   S
    C1390  O3931     0.59160      .   S
    C1360  O3931     0.59160      .   S
    C1044  O3932     0.68928      .   S
    C654   O3932     0.68928      .   S
    C1044  O3933     0.66946      .   S
    C1179  O3933     0.66946      .   S
    C1045  O3934     0.68928      .   S
    C655   O3934     0.68928      .   S
    C1045  O3935     0.66946      .   S
    C1180  O3935     0.66946      .   S
    C1048  O3936     0.68928      .   S
    C658   O3936     0.68928      .   S
    C1048  O3937     0.66946      .   S
    C1183  O3937     0.66946      .   S
    C1049  O3938     0.68928      .   S
    C659   O3938     0.68928      .   S
    C1049  O3939     0.66946      .   S
    C1184  O3939     0.66946      .   S
    C620   O3940     0.62089      .   S
    C455   O3940     0.62089      .   S
    C620   O3941     0.74639      .   S
    C695   O3941     0.74639      .   S
    C619   O3942     0.62089      .   S
    C454   O3942     0.62089      .   S
    C619   O3943     0.74639      .   S
    C694   O3943     0.74639      .   S
    C608   O3944     0.62089      .   S
    C443   O3944     0.62089      .   S
    C608   O3945     0.74639      .   S
    C683   O3945     0.74639      .   S
    C607   O3946     0.62089      .   S
    C442   O3946     0.62089      .   S
    C607   O3947     0.74639      .   S
    C682   O3947     0.74639      .   S
    C140   O3948     1.12542      .   S
    C605   O3948     1.12542      .   S
    C139   O3949     1.12542      .   S
    C604   O3949     1.12542      .   S
    C128   O3950     1.12542      .   S
    C593   O3950     1.12542      .   S
    C127   O3951     1.12542      .   S
    C592   O3951     1.12542      .   S
    C469   O3952     0.49897      .   S
    C484   O3952     0.49897      .   S
    C470   O3953     0.49897      .   S
    C485   O3953     0.49897      .   S
    C458   O3954     0.49897      .   S
    C473   O3954     0.49897      .   S
    C457   O3955     0.49897      .   S
    C472   O3955     0.49897      .   S
    C635   O3956     0.63579      .   S
    C1595  O3956     0.63579      .   S
    C634   O3957     0.63579      .   S
    C1594  O3957     0.63579      .   S
    C622   O3958     0.63579      .   S
    C1582  O3958     0.63579      .   S
    C623   O3959     0.63579      .   S
    C1583  O3959     0.63579      .   S
    C1806  O3960     0.95565      .   S
    C1784  O3960     0.95565  1_455   S
    C1805  O3961     0.95565      .   S
    C1783  O3961     0.95565  1_655   S
    C1802  O3962     0.95565      .   S
    C1780  O3962     0.95565      .   S
    C1801  O3963     0.95565      .   S
    C1779  O3963     0.95565      .   S
    C790   O3964     0.62882      .   S
    C325   O3964     0.62882      .   S
    C790   O3965     0.70882      .   S
    C925   O3965     0.70882      .   S
    C789   O3966     0.62882      .   S
    C324   O3966     0.62882      .   S
    C789   O3967     0.70882      .   S
    C924   O3967     0.70882      .   S
    C793   O3968     0.62882      .   S
    C328   O3968     0.62882      .   S
    C793   O3969     0.70882      .   S
    C928   O3969     0.70882      .   S
    C794   O3970     0.62882      .   S
    C329   O3970     0.62882      .   S
    C794   O3971     0.70882      .   S
    C929   O3971     0.70882      .   S
    C758   O3972     0.62937      .   S
    C593   O3972     0.62937      .   S
    C769   O3973     0.62937      .   S
    C604   O3973     0.62937      .   S
    C770   O3974     0.62937      .   S
    C605   O3974     0.62937      .   S
    C757   O3975     0.62937      .   S
    C592   O3975     0.62937      .   S
    C955   O3976     0.64385      .   S
    C640   O3976     0.64385      .   S
    C955   O3977     0.64134      .   S
    C490   O3977     0.64134      .   S
    C959   O3978     0.64385  1_655   S
    C644   O3978     0.64385      .   S
    C959   O3979     0.64134      .   S
    C494   O3979     0.64134      .   S
    C954   O3980     0.64385      .   S
    C639   O3980     0.64385      .   S
    C954   O3981     0.64134      .   S
    C489   O3981     0.64134      .   S
    C958   O3982     0.64385  1_455   S
    C643   O3982     0.64385      .   S
    C958   O3983     0.64134      .   S
    C493   O3983     0.64134      .   S
    C853   O3984     0.70984      .   S
    C928   O3984     0.70984      .   S
    C854   O3985     0.70984      .   S
    C929   O3985     0.70984      .   S
    C850   O3986     0.70984      .   S
    C925   O3986     0.70984      .   S
    C849   O3987     0.70984      .   S
    C924   O3987     0.70984      .   S
    C1238  O3988     0.47524      .   S
    C1223  O3988     0.47524      .   S
    C1249  O3989     0.47524      .   S
    C1234  O3989     0.47524      .   S
    C1237  O3990     0.47524      .   S
    C1222  O3990     0.47524      .   S
    C1250  O3991     0.47524      .   S
    C1235  O3991     0.47524      .   S
    C830   O3992     0.47555      .   S
    C815   O3992     0.47555      .   S
    C829   O3993     0.47555      .   S
    C814   O3993     0.47555      .   S
    C818   O3994     0.47555      .   S
    C803   O3994     0.47555      .   S
    C817   O3995     0.47555      .   S
    C802   O3995     0.47555      .   S
    C695   O3996     0.67429      .   S
    C1235  O3996     0.67429      .   S
    C694   O3997     0.67429      .   S
    C1234  O3997     0.67429      .   S
    C683   O3998     0.67429      .   S
    C1223  O3998     0.67429      .   S
    C682   O3999     0.67429      .   S
    C1222  O3999     0.67429      .   S
    C6     O4000     1.03985      .   S
    C1     O4000     1.03985      .   S
    C7     O4001     1.03919      .   S
    C0     O4001     1.03919  1_455   S
    C9     O4002     1.12045      .   S
    C1     O4002     1.12045  1_655   S
    C9     O4003     1.15893      .   S
    C5     O4003     1.15893      .   S
    C12    O4004     1.12855      .   S
    C155   O4004     1.12855      .   S
    C13    O4005     1.14493      .   S
    C131   O4005     1.14493      .   S
    C18    O4006     1.12214      .   S
    C180   O4006     1.12214      .   S
    C21    O4007     1.14223      .   S
    C3     O4007     1.14223  1_655   S
    C22    O4008     1.12019      .   S
    C0     O4008     1.12019  1_455   S
    C22    O4009     1.12334      .   S
    C2     O4009     1.12334      .   S
    C26    O4010     1.15827      .   S
    C188   O4010     1.15827      .   S
    C27    O4011     1.13345      .   S
    C134   O4011     1.13345      .   S
    C33    O4012     1.09013      .   S
    C0     O4012     1.09013      .   S
    C34    O4013     1.12729      .   S
    C1     O4013     1.12729      .   S
    C62    O4014     1.03656      .   S
    C3     O4014     1.03656  1_655   S
    C63    O4015     1.03528      .   S
    C4     O4015     1.03528      .   S
    C64    O4016     1.12546      .   S
    C0     O4016     1.12546      .   S
    C64    O4017     1.16951      .   S
    C5     O4017     1.16951      .   S
    C66    O4018     1.12295      .   S
    C2     O4018     1.12295      .   S
    C66    O4019     1.12084      .   S
    C4     O4019     1.12084  1_455   S
    C69    O4020     1.13632      .   S
    C4     O4020     1.13632  1_455   S
    C216   O4021     1.03985      .   S
    C141   O4021     1.03985      .   S
    C217   O4022     1.03985      .   S
    C142   O4022     1.03985      .   S
    C218   O4023     1.03985      .   S
    C143   O4023     1.03985      .   S
    C219   O4024     1.03985      .   S
    C144   O4024     1.03985      .   S
    C220   O4025     1.03985      .   S
    C145   O4025     1.03985      .   S
    C221   O4026     1.03985      .   S
    C146   O4026     1.03985      .   S
    C222   O4027     1.03985      .   S
    C147   O4027     1.03985      .   S
    C223   O4028     1.03985      .   S
    C148   O4028     1.03985      .   S
    C224   O4029     1.03985      .   S
    C149   O4029     1.03985      .   S
    C225   O4030     1.03985      .   S
    C150   O4030     1.03985      .   S
    C226   O4031     1.03985      .   S
    C151   O4031     1.03985      .   S
    C227   O4032     1.03985      .   S
    C152   O4032     1.03985      .   S
    C228   O4033     1.03985      .   S
    C153   O4033     1.03985      .   S
    C229   O4034     1.03985      .   S
    C154   O4034     1.03985      .   S
    C230   O4035     1.03985      .   S
    C155   O4035     1.03985      .   S
    C231   O4036     1.03919      .   S
    C126   O4036     1.03919  1_655   S
    C232   O4037     1.03919      .   S
    C127   O4037     1.03919      .   S
    C233   O4038     1.03919      .   S
    C128   O4038     1.03919      .   S
    C234   O4039     1.03919      .   S
    C129   O4039     1.03919      .   S
    C235   O4040     1.03919      .   S
    C130   O4040     1.03919      .   S
    C236   O4041     1.03919      .   S
    C131   O4041     1.03919      .   S
    C237   O4042     1.03919      .   S
    C132   O4042     1.03919      .   S
    C238   O4043     1.03919      .   S
    C133   O4043     1.03919  1_455   S
    C239   O4044     1.03919      .   S
    C134   O4044     1.03919  1_655   S
    C240   O4045     1.03919      .   S
    C135   O4045     1.03919      .   S
    C241   O4046     1.03919      .   S
    C136   O4046     1.03919      .   S
    C242   O4047     1.03919      .   S
    C137   O4047     1.03919      .   S
    C243   O4048     1.03919      .   S
    C138   O4048     1.03919      .   S
    C244   O4049     1.03919      .   S
    C139   O4049     1.03919      .   S
    C245   O4050     1.03919      .   S
    C140   O4050     1.03919      .   S
    C261   O4051     1.12045      .   S
    C141   O4051     1.12045  1_455   S
    C261   O4052     1.15893      .   S
    C201   O4052     1.15893      .   S
    C262   O4053     1.12045      .   S
    C142   O4053     1.12045      .   S
    C262   O4054     1.15893      .   S
    C202   O4054     1.15893      .   S
    C263   O4055     1.12045      .   S
    C143   O4055     1.12045      .   S
    C263   O4056     1.15893      .   S
    C203   O4056     1.15893      .   S
    C264   O4057     1.12045      .   S
    C144   O4057     1.12045      .   S
    C264   O4058     1.15893      .   S
    C204   O4058     1.15893      .   S
    C265   O4059     1.12045      .   S
    C145   O4059     1.12045      .   S
    C265   O4060     1.15893      .   S
    C205   O4060     1.15893      .   S
    C266   O4061     1.12045      .   S
    C146   O4061     1.12045      .   S
    C266   O4062     1.15893      .   S
    C206   O4062     1.15893      .   S
    C267   O4063     1.12045      .   S
    C147   O4063     1.12045      .   S
    C267   O4064     1.15893      .   S
    C207   O4064     1.15893      .   S
    C268   O4065     1.12045      .   S
    C148   O4065     1.12045  1_655   S
    C268   O4066     1.15893      .   S
    C208   O4066     1.15893      .   S
    C269   O4067     1.12045      .   S
    C149   O4067     1.12045  1_455   S
    C269   O4068     1.15893      .   S
    C209   O4068     1.15893      .   S
    C270   O4069     1.12045      .   S
    C150   O4069     1.12045      .   S
    C270   O4070     1.15893      .   S
    C210   O4070     1.15893      .   S
    C271   O4071     1.12045      .   S
    C151   O4071     1.12045      .   S
    C271   O4072     1.15893      .   S
    C211   O4072     1.15893      .   S
    C272   O4073     1.12045      .   S
    C152   O4073     1.12045      .   S
    C272   O4074     1.15893      .   S
    C212   O4074     1.15893      .   S
    C273   O4075     1.12045      .   S
    C153   O4075     1.12045      .   S
    C273   O4076     1.15893      .   S
    C213   O4076     1.15893      .   S
    C274   O4077     1.12045      .   S
    C154   O4077     1.12045      .   S
    C274   O4078     1.15893      .   S
    C214   O4078     1.15893      .   S
    C275   O4079     1.12045      .   S
    C155   O4079     1.12045      .   S
    C275   O4080     1.15893      .   S
    C215   O4080     1.15893      .   S
    C306   O4081     1.12855      .   S
    C142   O4081     1.12855      .   S
    C307   O4082     1.12855      .   S
    C149   O4082     1.12855      .   S
    C308   O4083     1.12855      .   S
    C144   O4083     1.12855      .   S
    C309   O4084     1.12855      .   S
    C151   O4084     1.12855      .   S
    C310   O4085     1.12855      .   S
    C146   O4085     1.12855      .   S
    C311   O4086     1.12855      .   S
    C153   O4086     1.12855      .   S
    C312   O4087     1.12855      .   S
    C1     O4087     1.12855      .   S
    C313   O4088     1.12855      .   S
    C147   O4088     1.12855      .   S
    C314   O4089     1.12855      .   S
    C150   O4089     1.12855      .   S
    C315   O4090     1.12855      .   S
    C141   O4090     1.12855      .   S
    C316   O4091     1.12855      .   S
    C152   O4091     1.12855      .   S
    C317   O4092     1.12855      .   S
    C143   O4092     1.12855      .   S
    C318   O4093     1.12855      .   S
    C154   O4093     1.12855      .   S
    C319   O4094     1.12855      .   S
    C145   O4094     1.12855      .   S
    C320   O4095     1.12855      .   S
    C148   O4095     1.12855      .   S
    C321   O4096     1.14493      .   S
    C136   O4096     1.14493      .   S
    C322   O4097     1.14493      .   S
    C0     O4097     1.14493      .   S
    C323   O4098     1.14493      .   S
    C138   O4098     1.14493      .   S
    C324   O4099     1.14493      .   S
    C127   O4099     1.14493      .   S
    C325   O4100     1.14493      .   S
    C140   O4100     1.14493      .   S
    C326   O4101     1.14493      .   S
    C129   O4101     1.14493      .   S
    C327   O4102     1.14493      .   S
    C134   O4102     1.14493      .   S
    C328   O4103     1.14493      .   S
    C139   O4103     1.14493      .   S
    C329   O4104     1.14493      .   S
    C128   O4104     1.14493      .   S
    C330   O4105     1.14493      .   S
    C133   O4105     1.14493      .   S
    C331   O4106     1.14493      .   S
    C130   O4106     1.14493      .   S
    C332   O4107     1.14493      .   S
    C135   O4107     1.14493      .   S
    C333   O4108     1.14493      .   S
    C132   O4108     1.14493      .   S
    C334   O4109     1.14493      .   S
    C137   O4109     1.14493      .   S
    C335   O4110     1.14493      .   S
    C126   O4110     1.14493      .   S
    C396   O4111     1.12214      .   S
    C177   O4111     1.12214      .   S
    C397   O4112     1.12214      .   S
    C182   O4112     1.12214      .   S
    C398   O4113     1.12214      .   S
    C171   O4113     1.12214      .   S
    C399   O4114     1.12214      .   S
    C184   O4114     1.12214      .   S
    C400   O4115     1.12214      .   S
    C173   O4115     1.12214      .   S
    C401   O4116     1.12214      .   S
    C178   O4116     1.12214      .   S
    C402   O4117     1.12214      .   S
    C175   O4117     1.12214      .   S
    C403   O4118     1.12214      .   S
    C172   O4118     1.12214      .   S
    C404   O4119     1.12214      .   S
    C185   O4119     1.12214      .   S
    C405   O4120     1.12214      .   S
    C174   O4120     1.12214      .   S
    C406   O4121     1.12214      .   S
    C179   O4121     1.12214      .   S
    C407   O4122     1.12214      .   S
    C176   O4122     1.12214      .   S
    C408   O4123     1.12214      .   S
    C181   O4123     1.12214      .   S
    C409   O4124     1.12214      .   S
    C3     O4124     1.12214      .   S
    C410   O4125     1.12214      .   S
    C183   O4125     1.12214      .   S
    C441   O4126     1.14223      .   S
    C171   O4126     1.14223  1_455   S
    C442   O4127     1.14223      .   S
    C172   O4127     1.14223      .   S
    C443   O4128     1.14223      .   S
    C173   O4128     1.14223      .   S
    C444   O4129     1.14223      .   S
    C174   O4129     1.14223      .   S
    C445   O4130     1.14223      .   S
    C175   O4130     1.14223      .   S
    C446   O4131     1.14223      .   S
    C176   O4131     1.14223      .   S
    C447   O4132     1.14223      .   S
    C177   O4132     1.14223      .   S
    C448   O4133     1.14223      .   S
    C178   O4133     1.14223  1_655   S
    C449   O4134     1.14223      .   S
    C179   O4134     1.14223  1_455   S
    C450   O4135     1.14223      .   S
    C180   O4135     1.14223      .   S
    C451   O4136     1.14223      .   S
    C181   O4136     1.14223      .   S
    C452   O4137     1.14223      .   S
    C182   O4137     1.14223      .   S
    C453   O4138     1.14223      .   S
    C183   O4138     1.14223      .   S
    C454   O4139     1.14223      .   S
    C184   O4139     1.14223      .   S
    C455   O4140     1.14223      .   S
    C185   O4140     1.14223      .   S
    C456   O4141     1.12019      .   S
    C126   O4141     1.12019  1_655   S
    C456   O4142     1.12334      .   S
    C156   O4142     1.12334      .   S
    C457   O4143     1.12019      .   S
    C127   O4143     1.12019      .   S
    C457   O4144     1.12334      .   S
    C157   O4144     1.12334      .   S
    C458   O4145     1.12019      .   S
    C128   O4145     1.12019      .   S
    C458   O4146     1.12334      .   S
    C158   O4146     1.12334      .   S
    C459   O4147     1.12019      .   S
    C129   O4147     1.12019      .   S
    C459   O4148     1.12334      .   S
    C159   O4148     1.12334      .   S
    C460   O4149     1.12019      .   S
    C130   O4149     1.12019      .   S
    C460   O4150     1.12334      .   S
    C160   O4150     1.12334      .   S
    C461   O4151     1.12019      .   S
    C131   O4151     1.12019      .   S
    C461   O4152     1.12334      .   S
    C161   O4152     1.12334      .   S
    C462   O4153     1.12019      .   S
    C132   O4153     1.12019      .   S
    C462   O4154     1.12334      .   S
    C162   O4154     1.12334      .   S
    C463   O4155     1.12019      .   S
    C133   O4155     1.12019  1_455   S
    C463   O4156     1.12334      .   S
    C163   O4156     1.12334      .   S
    C464   O4157     1.12019      .   S
    C134   O4157     1.12019  1_655   S
    C464   O4158     1.12334      .   S
    C164   O4158     1.12334      .   S
    C465   O4159     1.12019      .   S
    C135   O4159     1.12019      .   S
    C465   O4160     1.12334      .   S
    C165   O4160     1.12334      .   S
    C466   O4161     1.12019      .   S
    C136   O4161     1.12019      .   S
    C466   O4162     1.12334      .   S
    C166   O4162     1.12334      .   S
    C467   O4163     1.12019      .   S
    C137   O4163     1.12019      .   S
    C467   O4164     1.12334      .   S
    C167   O4164     1.12334      .   S
    C468   O4165     1.12019      .   S
    C138   O4165     1.12019      .   S
    C468   O4166     1.12334      .   S
    C168   O4166     1.12334      .   S
    C469   O4167     1.12019      .   S
    C139   O4167     1.12019      .   S
    C469   O4168     1.12334      .   S
    C169   O4168     1.12334      .   S
    C470   O4169     1.12019      .   S
    C140   O4169     1.12019      .   S
    C470   O4170     1.12334      .   S
    C170   O4170     1.12334      .   S
    C516   O4171     1.15827      .   S
    C199   O4171     1.15827      .   S
    C517   O4172     1.15827      .   S
    C190   O4172     1.15827      .   S
    C518   O4173     1.15827      .   S
    C193   O4173     1.15827      .   S
    C519   O4174     1.15827      .   S
    C192   O4174     1.15827      .   S
    C520   O4175     1.15827      .   S
    C195   O4175     1.15827      .   S
    C521   O4176     1.15827      .   S
    C186   O4176     1.15827      .   S
    C522   O4177     1.15827      .   S
    C197   O4177     1.15827      .   S
    C523   O4178     1.15827      .   S
    C196   O4178     1.15827      .   S
    C524   O4179     1.15827      .   S
    C191   O4179     1.15827      .   S
    C525   O4180     1.15827      .   S
    C198   O4180     1.15827      .   S
    C526   O4181     1.15827      .   S
    C4     O4181     1.15827      .   S
    C527   O4182     1.15827      .   S
    C200   O4182     1.15827      .   S
    C528   O4183     1.15827      .   S
    C187   O4183     1.15827      .   S
    C529   O4184     1.15827      .   S
    C194   O4184     1.15827      .   S
    C530   O4185     1.15827      .   S
    C189   O4185     1.15827      .   S
    C531   O4186     1.13345      .   S
    C133   O4186     1.13345      .   S
    C532   O4187     1.13345      .   S
    C136   O4187     1.13345      .   S
    C533   O4188     1.13345      .   S
    C135   O4188     1.13345      .   S
    C534   O4189     1.13345      .   S
    C138   O4189     1.13345      .   S
    C535   O4190     1.13345      .   S
    C137   O4190     1.13345      .   S
    C536   O4191     1.13345  1_554   S
    C140   O4191     1.13345      .   S
    C537   O4192     1.13345  1_554   S
    C139   O4192     1.13345      .   S
    C538   O4193     1.13345      .   S
    C126   O4193     1.13345      .   S
    C539   O4194     1.13345      .   S
    C0     O4194     1.13345      .   S
    C540   O4195     1.13345  1_554   S
    C128   O4195     1.13345      .   S
    C541   O4196     1.13345  1_554   S
    C127   O4196     1.13345      .   S
    C542   O4197     1.13345      .   S
    C130   O4197     1.13345      .   S
    C543   O4198     1.13345      .   S
    C129   O4198     1.13345      .   S
    C544   O4199     1.13345      .   S
    C132   O4199     1.13345      .   S
    C545   O4200     1.13345      .   S
    C131   O4200     1.13345      .   S
    C621   O4201     1.09013      .   S
    C126   O4201     1.09013      .   S
    C622   O4202     1.09013      .   S
    C127   O4202     1.09013      .   S
    C623   O4203     1.09013      .   S
    C128   O4203     1.09013      .   S
    C624   O4204     1.09013      .   S
    C129   O4204     1.09013      .   S
    C625   O4205     1.09013      .   S
    C130   O4205     1.09013      .   S
    C626   O4206     1.09013      .   S
    C131   O4206     1.09013      .   S
    C627   O4207     1.09013      .   S
    C132   O4207     1.09013      .   S
    C628   O4208     1.09013      .   S
    C133   O4208     1.09013      .   S
    C629   O4209     1.09013      .   S
    C134   O4209     1.09013      .   S
    C630   O4210     1.09013      .   S
    C135   O4210     1.09013      .   S
    C631   O4211     1.09013      .   S
    C136   O4211     1.09013      .   S
    C632   O4212     1.09013      .   S
    C137   O4212     1.09013      .   S
    C633   O4213     1.09013      .   S
    C138   O4213     1.09013      .   S
    C634   O4214     1.09013      .   S
    C139   O4214     1.09013      .   S
    C635   O4215     1.09013      .   S
    C140   O4215     1.09013      .   S
    C636   O4216     1.12729      .   S
    C141   O4216     1.12729      .   S
    C637   O4217     1.12729      .   S
    C142   O4217     1.12729      .   S
    C638   O4218     1.12729      .   S
    C143   O4218     1.12729      .   S
    C639   O4219     1.12729  1_556   S
    C144   O4219     1.12729      .   S
    C640   O4220     1.12729  1_556   S
    C145   O4220     1.12729      .   S
    C641   O4221     1.12729      .   S
    C146   O4221     1.12729      .   S
    C642   O4222     1.12729      .   S
    C147   O4222     1.12729      .   S
    C643   O4223     1.12729  1_556   S
    C148   O4223     1.12729      .   S
    C644   O4224     1.12729  1_556   S
    C149   O4224     1.12729      .   S
    C645   O4225     1.12729      .   S
    C150   O4225     1.12729      .   S
    C646   O4226     1.12729      .   S
    C151   O4226     1.12729      .   S
    C647   O4227     1.12729      .   S
    C152   O4227     1.12729      .   S
    C648   O4228     1.12729      .   S
    C153   O4228     1.12729      .   S
    C649   O4229     1.12729      .   S
    C154   O4229     1.12729      .   S
    C650   O4230     1.12729      .   S
    C155   O4230     1.12729      .   S
    C1056  O4231     1.03656      .   S
    C171   O4231     1.03656  1_455   S
    C1057  O4232     1.03656      .   S
    C172   O4232     1.03656      .   S
    C1058  O4233     1.03656      .   S
    C173   O4233     1.03656      .   S
    C1059  O4234     1.03656      .   S
    C174   O4234     1.03656      .   S
    C1060  O4235     1.03656      .   S
    C175   O4235     1.03656      .   S
    C1061  O4236     1.03656      .   S
    C176   O4236     1.03656      .   S
    C1062  O4237     1.03656      .   S
    C177   O4237     1.03656      .   S
    C1063  O4238     1.03656      .   S
    C178   O4238     1.03656  1_655   S
    C1064  O4239     1.03656      .   S
    C179   O4239     1.03656  1_455   S
    C1065  O4240     1.03656      .   S
    C180   O4240     1.03656      .   S
    C1066  O4241     1.03656      .   S
    C181   O4241     1.03656      .   S
    C1067  O4242     1.03656      .   S
    C182   O4242     1.03656      .   S
    C1068  O4243     1.03656      .   S
    C183   O4243     1.03656      .   S
    C1069  O4244     1.03656      .   S
    C184   O4244     1.03656      .   S
    C1070  O4245     1.03656      .   S
    C185   O4245     1.03656      .   S
    C1071  O4246     1.03528      .   S
    C186   O4246     1.03528      .   S
    C1072  O4247     1.03528  1_565   S
    C187   O4247     1.03528      .   S
    C1073  O4248     1.03528      .   S
    C188   O4248     1.03528      .   S
    C1074  O4249     1.03528      .   S
    C189   O4249     1.03528      .   S
    C1075  O4250     1.03528      .   S
    C190   O4250     1.03528      .   S
    C1076  O4251     1.03528  1_565   S
    C191   O4251     1.03528      .   S
    C1077  O4252     1.03528      .   S
    C192   O4252     1.03528      .   S
    C1078  O4253     1.03528      .   S
    C193   O4253     1.03528      .   S
    C1079  O4254     1.03528      .   S
    C194   O4254     1.03528      .   S
    C1080  O4255     1.03528      .   S
    C195   O4255     1.03528      .   S
    C1081  O4256     1.03528  1_545   S
    C196   O4256     1.03528      .   S
    C1082  O4257     1.03528      .   S
    C197   O4257     1.03528      .   S
    C1083  O4258     1.03528      .   S
    C198   O4258     1.03528      .   S
    C1084  O4259     1.03528      .   S
    C199   O4259     1.03528      .   S
    C1085  O4260     1.03528  1_545   S
    C200   O4260     1.03528      .   S
    C1086  O4261     1.12546      .   S
    C126   O4261     1.12546      .   S
    C1086  O4262     1.16951      .   S
    C201   O4262     1.16951      .   S
    C1087  O4263     1.12546      .   S
    C127   O4263     1.12546      .   S
    C1087  O4264     1.16951      .   S
    C202   O4264     1.16951  1_565   S
    C1088  O4265     1.12546      .   S
    C128   O4265     1.12546      .   S
    C1088  O4266     1.16951      .   S
    C203   O4266     1.16951      .   S
    C1089  O4267     1.12546      .   S
    C129   O4267     1.12546      .   S
    C1089  O4268     1.16951      .   S
    C204   O4268     1.16951      .   S
    C1090  O4269     1.12546      .   S
    C130   O4269     1.12546      .   S
    C1090  O4270     1.16951      .   S
    C205   O4270     1.16951      .   S
    C1091  O4271     1.12546      .   S
    C131   O4271     1.12546      .   S
    C1091  O4272     1.16951      .   S
    C206   O4272     1.16951  1_565   S
    C1092  O4273     1.12546      .   S
    C132   O4273     1.12546      .   S
    C1092  O4274     1.16951      .   S
    C207   O4274     1.16951      .   S
    C1093  O4275     1.12546      .   S
    C133   O4275     1.12546      .   S
    C1093  O4276     1.16951      .   S
    C208   O4276     1.16951      .   S
    C1094  O4277     1.12546      .   S
    C134   O4277     1.12546      .   S
    C1094  O4278     1.16951      .   S
    C209   O4278     1.16951      .   S
    C1095  O4279     1.12546      .   S
    C135   O4279     1.12546      .   S
    C1095  O4280     1.16951      .   S
    C210   O4280     1.16951      .   S
    C1096  O4281     1.12546      .   S
    C136   O4281     1.12546      .   S
    C1096  O4282     1.16951      .   S
    C211   O4282     1.16951  1_545   S
    C1097  O4283     1.12546      .   S
    C137   O4283     1.12546      .   S
    C1097  O4284     1.16951      .   S
    C212   O4284     1.16951      .   S
    C1098  O4285     1.12546      .   S
    C138   O4285     1.12546      .   S
    C1098  O4286     1.16951      .   S
    C213   O4286     1.16951      .   S
    C1099  O4287     1.12546      .   S
    C139   O4287     1.12546      .   S
    C1099  O4288     1.16951      .   S
    C214   O4288     1.16951      .   S
    C1100  O4289     1.12546      .   S
    C140   O4289     1.12546      .   S
    C1100  O4290     1.16951      .   S
    C215   O4290     1.16951  1_545   S
    C1116  O4291     1.12295      .   S
    C156   O4291     1.12295      .   S
    C1116  O4292     1.12084      .   S
    C186   O4292     1.12084  1_655   S
    C1117  O4293     1.12295      .   S
    C157   O4293     1.12295      .   S
    C1117  O4294     1.12084      .   S
    C187   O4294     1.12084      .   S
    C1118  O4295     1.12295      .   S
    C158   O4295     1.12295      .   S
    C1118  O4296     1.12084      .   S
    C188   O4296     1.12084      .   S
    C1119  O4297     1.12295      .   S
    C159   O4297     1.12295      .   S
    C1119  O4298     1.12084      .   S
    C189   O4298     1.12084      .   S
    C1120  O4299     1.12295      .   S
    C160   O4299     1.12295      .   S
    C1120  O4300     1.12084      .   S
    C190   O4300     1.12084      .   S
    C1121  O4301     1.12295      .   S
    C161   O4301     1.12295      .   S
    C1121  O4302     1.12084      .   S
    C191   O4302     1.12084      .   S
    C1122  O4303     1.12295      .   S
    C162   O4303     1.12295      .   S
    C1122  O4304     1.12084      .   S
    C192   O4304     1.12084      .   S
    C1123  O4305     1.12295      .   S
    C163   O4305     1.12295      .   S
    C1123  O4306     1.12084      .   S
    C193   O4306     1.12084  1_455   S
    C1124  O4307     1.12295      .   S
    C164   O4307     1.12295      .   S
    C1124  O4308     1.12084      .   S
    C194   O4308     1.12084  1_655   S
    C1125  O4309     1.12295      .   S
    C165   O4309     1.12295      .   S
    C1125  O4310     1.12084      .   S
    C195   O4310     1.12084      .   S
    C1126  O4311     1.12295      .   S
    C166   O4311     1.12295      .   S
    C1126  O4312     1.12084      .   S
    C196   O4312     1.12084      .   S
    C1127  O4313     1.12295      .   S
    C167   O4313     1.12295      .   S
    C1127  O4314     1.12084      .   S
    C197   O4314     1.12084      .   S
    C1128  O4315     1.12295      .   S
    C168   O4315     1.12295      .   S
    C1128  O4316     1.12084      .   S
    C198   O4316     1.12084      .   S
    C1129  O4317     1.12295      .   S
    C169   O4317     1.12295      .   S
    C1129  O4318     1.12084      .   S
    C199   O4318     1.12084      .   S
    C1130  O4319     1.12295      .   S
    C170   O4319     1.12295      .   S
    C1130  O4320     1.12084      .   S
    C200   O4320     1.12084      .   S
    C1161  O4321     1.13632      .   S
    C186   O4321     1.13632  1_655   S
    C1162  O4322     1.13632      .   S
    C187   O4322     1.13632      .   S
    C1163  O4323     1.13632      .   S
    C188   O4323     1.13632      .   S
    C1164  O4324     1.13632      .   S
    C189   O4324     1.13632      .   S
    C1165  O4325     1.13632      .   S
    C190   O4325     1.13632      .   S
    C1166  O4326     1.13632      .   S
    C191   O4326     1.13632      .   S
    C1167  O4327     1.13632      .   S
    C192   O4327     1.13632      .   S
    C1168  O4328     1.13632      .   S
    C193   O4328     1.13632  1_455   S
    C1169  O4329     1.13632      .   S
    C194   O4329     1.13632  1_655   S
    C1170  O4330     1.13632      .   S
    C195   O4330     1.13632      .   S
    C1171  O4331     1.13632      .   S
    C196   O4331     1.13632      .   S
    C1172  O4332     1.13632      .   S
    C197   O4332     1.13632      .   S
    C1173  O4333     1.13632      .   S
    C198   O4333     1.13632      .   S
    C1174  O4334     1.13632      .   S
    C199   O4334     1.13632      .   S
    C1175  O4335     1.13632      .   S
    C200   O4335     1.13632      .   S
