# CIF file generated by openbabel 2.4.90, see http://openbabel.sf.net
data_I
_chemical_name_common ''
_cell_length_a 24.057
_cell_length_b 24.057
_cell_length_c 26.996
_cell_angle_alpha 90
_cell_angle_beta 90
_cell_angle_gamma 120
_space_group_name_H-M_alt 'P 1'
_space_group_name_Hall 'P 1'
loop_
    _symmetry_equiv_pos_as_xyz
    x,y,z
loop_
    _atom_site_label
    _atom_site_type_symbol
    _atom_site_fract_x
    _atom_site_fract_y
    _atom_site_fract_z
    _atom_site_occupancy
    C0      C    0.39360   0.17184   0.05329   1.000
    C1      C    0.34415   0.06780   0.09920   1.000
    C2      C    0.36143   0.03123   0.12795   1.000
    C3      C    0.32598   0.96419   0.12539   1.000
    C4      C    0.27373   0.93264   0.09423   1.000
    C5      C    0.25564   0.96995   0.06694   1.000
    C6      C    0.29003   0.03602   0.06944   1.000
    C7      C    0.27450   0.72550   0.08330   1.000
    C8      C    0.33013   0.74699   0.11080   1.000
    C9      C    0.36340   0.71332   0.11057   1.000
    C10     C    0.17184   0.39360   0.61338   1.000
    C11     C    0.45320   0.27333   0.09428   1.000
    C12     C    0.42618   0.23695   0.05099   1.000
    C13     C    0.44580   0.24208   0.13816   1.000
    C14     C    0.41248   0.17550   0.13970   1.000
    C15     C    0.38370   0.13940   0.09776   1.000
    C16     C    0.34212   0.65788   0.08330   1.000
    C17     C    0.37772   0.62228   0.08330   1.000
    C18     C    0.41267   0.62256   0.12458   1.000
    C19     C    0.44576   0.55424   0.08330   1.000
    C20     C    0.44591   0.58901   0.12588   1.000
    C21     C    0.55420   0.75792   0.63816   1.000
    C22     C    0.72667   0.17987   0.76095   1.000
    C23     C    0.82013   0.54680   0.42761   1.000
    C24     C    0.54680   0.72667   0.59428   1.000
    C25     C    0.27333   0.82013   0.26095   1.000
    C26     C    0.17987   0.45320   0.92761   1.000
    C27     C    0.27333   0.45320   0.57239   1.000
    C28     C    0.17987   0.72667   0.90572   1.000
    C29     C    0.54680   0.82013   0.23905   1.000
    C30     C    0.72667   0.54680   0.07239   1.000
    C31     C    0.82013   0.27333   0.40572   1.000
    C32     C    0.45320   0.17987   0.73905   1.000
    C33     C    0.76305   0.18923   0.71766   1.000
    C34     C    0.81077   0.57382   0.38432   1.000
    C35     C    0.57382   0.76305   0.55099   1.000
    C36     C    0.23695   0.81077   0.21766   1.000
    C37     C    0.18923   0.42618   0.88432   1.000
    C38     C    0.23695   0.42618   0.61568   1.000
    C39     C    0.18923   0.76305   0.94901   1.000
    C40     C    0.57382   0.81077   0.28234   1.000
    C41     C    0.76305   0.57382   0.11568   1.000
    C42     C    0.81077   0.23695   0.44901   1.000
    C43     C    0.42618   0.18923   0.78234   1.000
    C44     C    0.75792   0.20372   0.80483   1.000
    C45     C    0.79628   0.55420   0.47149   1.000
    C46     C    0.03581   0.36179   0.79206   1.000
    C47     C    0.63821   0.67402   0.45872   1.000
    C48     C    0.24208   0.79628   0.30483   1.000
    C49     C    0.20372   0.44580   0.97149   1.000
    C50     C    0.24208   0.44580   0.52851   1.000
    C51     C    0.20372   0.75792   0.86184   1.000
    C52     C    0.55420   0.79628   0.19517   1.000
    C53     C    0.75792   0.55420   0.02851   1.000
    C54     C    0.79628   0.24208   0.36184   1.000
    C55     C    0.44580   0.20372   0.69517   1.000
    C56     C    0.82450   0.23698   0.80637   1.000
    C57     C    0.76302   0.58752   0.47303   1.000
    C58     C    0.58752   0.82450   0.63970   1.000
    C59     C    0.17550   0.76302   0.30637   1.000
    C60     C    0.23698   0.41248   0.97303   1.000
    C61     C    0.17550   0.41248   0.52697   1.000
    C62     C    0.23698   0.82450   0.86030   1.000
    C63     C    0.58752   0.76302   0.19363   1.000
    C64     C    0.82450   0.58752   0.02697   1.000
    C65     C    0.76302   0.17550   0.36030   1.000
    C66     C    0.41248   0.23698   0.69363   1.000
    C67     C    0.86060   0.24430   0.76443   1.000
    C68     C    0.75570   0.61630   0.43109   1.000
    C69     C    0.61630   0.86060   0.59776   1.000
    C70     C    0.13940   0.75570   0.26443   1.000
    C71     C    0.24430   0.38370   0.93109   1.000
    C72     C    0.13940   0.38370   0.56891   1.000
    C73     C    0.24430   0.86060   0.90224   1.000
    C74     C    0.61630   0.75570   0.23557   1.000
    C75     C    0.86060   0.61630   0.06891   1.000
    C76     C    0.75570   0.13940   0.40224   1.000
    C77     C    0.38370   0.24430   0.73557   1.000
    C78     C    0.82816   0.22176   0.71996   1.000
    C79     C    0.77824   0.60640   0.38662   1.000
    C80     C    0.60640   0.82816   0.55329   1.000
    C81     C    0.17184   0.77824   0.21996   1.000
    C82     C    0.22176   0.39360   0.88662   1.000
    C83     C    0.22176   0.82816   0.94671   1.000
    C84     C    0.60640   0.77824   0.28004   1.000
    C85     C    0.82816   0.60640   0.11338   1.000
    C86     C    0.77824   0.17184   0.44671   1.000
    C87     C    0.39360   0.22176   0.78004   1.000
    C88     C    0.93220   0.27635   0.76587   1.000
    C89     C    0.72365   0.65585   0.43253   1.000
    C90     C    0.65585   0.93220   0.59920   1.000
    C91     C    0.06780   0.72365   0.26587   1.000
    C92     C    0.27635   0.34415   0.93253   1.000
    C93     C    0.06780   0.34415   0.56747   1.000
    C94     C    0.27635   0.93220   0.90080   1.000
    C95     C    0.65585   0.72365   0.23413   1.000
    C96     C    0.93220   0.65585   0.06747   1.000
    C97     C    0.72365   0.06780   0.40080   1.000
    C98     C    0.34415   0.27635   0.73413   1.000
    C99     C    0.96877   0.33020   0.79462   1.000
    C100    C    0.66980   0.63857   0.46128   1.000
    C101    C    0.63857   0.96877   0.62795   1.000
    C102    C    0.03123   0.66980   0.29462   1.000
    C103    C    0.33020   0.36143   0.96128   1.000
    C104    C    0.03123   0.36143   0.53872   1.000
    C105    C    0.33020   0.96877   0.87205   1.000
    C106    C    0.63857   0.66980   0.20538   1.000
    C107    C    0.96877   0.63857   0.03872   1.000
    C108    C    0.66980   0.03123   0.37205   1.000
    C109    C    0.36143   0.33020   0.70538   1.000
    C110    C    0.44576   0.89152   0.74997   1.000
    C111    C    0.10848   0.55424   0.41663   1.000
    C112    C    0.55424   0.44576   0.58330   1.000
    C113    C    0.67402   0.03581   0.62539   1.000
    C114    C    0.96419   0.63821   0.29206   1.000
    C115    C    0.36179   0.32598   0.95872   1.000
    C116    C    0.96419   0.32598   0.54128   1.000
    C117    C    0.36179   0.03581   0.87461   1.000
    C118    C    0.67402   0.63821   0.20794   1.000
    C119    C    0.03581   0.67402   0.04128   1.000
    C120    C    0.63821   0.96419   0.37461   1.000
    C121    C    0.32598   0.36179   0.70794   1.000
    C122    C    0.06736   0.34109   0.76090   1.000
    C123    C    0.65891   0.72627   0.42756   1.000
    C124    C    0.72627   0.06736   0.59423   1.000
    C125    C    0.93264   0.65891   0.26090   1.000
    C126    C    0.34109   0.27373   0.92756   1.000
    C127    C    0.93264   0.27373   0.57244   1.000
    C128    C    0.34109   0.06736   0.90577   1.000
    C129    C    0.72627   0.65891   0.23910   1.000
    C130    C    0.06736   0.72627   0.07244   1.000
    C131    C    0.65891   0.93264   0.40577   1.000
    C132    C    0.27373   0.34109   0.73910   1.000
    C133    C    0.03005   0.28569   0.73361   1.000
    C134    C    0.71431   0.74436   0.40027   1.000
    C135    C    0.74436   0.03005   0.56694   1.000
    C136    C    0.96995   0.71431   0.23361   1.000
    C137    C    0.28569   0.25564   0.90027   1.000
    C138    C    0.96995   0.25564   0.59973   1.000
    C139    C    0.28569   0.03005   0.93306   1.000
    C140    C    0.74436   0.71431   0.26639   1.000
    C141    C    0.03005   0.74436   0.09973   1.000
    C142    C    0.71431   0.96995   0.43306   1.000
    C143    C    0.25564   0.28569   0.76639   1.000
    C144    C    0.96398   0.25401   0.73611   1.000
    C145    C    0.74599   0.70997   0.40277   1.000
    C146    C    0.70997   0.96398   0.56944   1.000
    C147    C    0.03602   0.74599   0.23611   1.000
    C148    C    0.25401   0.29003   0.90277   1.000
    C149    C    0.03602   0.29003   0.59723   1.000
    C150    C    0.25401   0.96398   0.93056   1.000
    C151    C    0.70997   0.74599   0.26389   1.000
    C152    C    0.96398   0.70997   0.09723   1.000
    C153    C    0.74599   0.03602   0.43056   1.000
    C154    C    0.29003   0.25401   0.76389   1.000
    H155    H    0.21970   0.26970   0.78673   1.000
    H156    H    0.94020   0.21690   0.71747   1.000
    H157    H    0.78310   0.72330   0.38413   1.000
    H158    H    0.72330   0.94020   0.55080   1.000
    H159    H    0.05980   0.78310   0.21747   1.000
    H160    H    0.21690   0.27670   0.88413   1.000
    C161    C    0.27450   0.54900   0.74997   1.000
    C162    C    0.45100   0.72550   0.41663   1.000
    C163    C    0.72550   0.27450   0.58330   1.000
    C164    C    0.72550   0.45100   0.24997   1.000
    C165    C    0.54900   0.27450   0.91663   1.000
    C166    C    0.25301   0.58314   0.77747   1.000
    C167    C    0.41686   0.66987   0.44413   1.000
    C168    C    0.66987   0.25301   0.61080   1.000
    C169    C    0.74699   0.41686   0.27747   1.000
    C170    C    0.58314   0.33013   0.94413   1.000
    C171    C    0.74699   0.33013   0.55587   1.000
    C172    C    0.58314   0.25301   0.88920   1.000
    C173    C    0.66987   0.41686   0.22253   1.000
    C174    C    0.25301   0.66987   0.05587   1.000
    C175    C    0.41686   0.74699   0.38920   1.000
    C176    C    0.33013   0.58314   0.72253   1.000
    C177    C    0.28668   0.65008   0.77724   1.000
    C178    C    0.34992   0.63660   0.44390   1.000
    C179    C    0.63660   0.28668   0.61057   1.000
    C180    C    0.71332   0.34992   0.27724   1.000
    C181    C    0.65008   0.36340   0.94390   1.000
    C182    C    0.71332   0.36340   0.55610   1.000
    C183    C    0.65008   0.28668   0.88943   1.000
    C184    C    0.63660   0.34992   0.22276   1.000
    C185    C    0.28668   0.63660   0.05610   1.000
    C186    C    0.34992   0.71332   0.38943   1.000
    C187    C    0.36340   0.65008   0.72276   1.000
    C188    C    0.34212   0.68424   0.74997   1.000
    C189    C    0.31576   0.65788   0.41663   1.000
    C190    C    0.65788   0.34212   0.58330   1.000
    C191    C    0.65788   0.31576   0.24997   1.000
    C192    C    0.68424   0.34212   0.91663   1.000
    C193    C    0.37772   0.75544   0.74997   1.000
    C194    C    0.24456   0.62228   0.41663   1.000
    C195    C    0.62228   0.37772   0.58330   1.000
    C196    C    0.62228   0.24456   0.24997   1.000
    C197    C    0.75544   0.37772   0.91663   1.000
    C198    C    0.37744   0.79011   0.79125   1.000
    C199    C    0.20989   0.58733   0.45791   1.000
    C200    C    0.58733   0.37744   0.62458   1.000
    C201    C    0.62256   0.20989   0.29125   1.000
    C202    C    0.79011   0.41267   0.95791   1.000
    C203    C    0.62256   0.41267   0.54209   1.000
    C204    C    0.79011   0.37744   0.87542   1.000
    C205    C    0.58733   0.20989   0.20875   1.000
    C206    C    0.37744   0.58733   0.04209   1.000
    C207    C    0.20989   0.62256   0.37542   1.000
    C208    C    0.41267   0.79011   0.70875   1.000
    C209    C    0.55424   0.10848   0.24997   1.000
    C210    C    0.89152   0.44576   0.91663   1.000
    C211    C    0.41099   0.85690   0.79255   1.000
    C212    C    0.14310   0.55409   0.45921   1.000
    C213    C    0.55409   0.41099   0.62588   1.000
    C214    C    0.58901   0.14310   0.29255   1.000
    C215    C    0.85690   0.44591   0.95921   1.000
    C216    C    0.58901   0.44591   0.54079   1.000
    C217    C    0.85690   0.41099   0.87412   1.000
    C218    C    0.55409   0.14310   0.20745   1.000
    C219    C    0.41099   0.55409   0.04079   1.000
    C220    C    0.14310   0.58901   0.37412   1.000
    C221    C    0.44591   0.85690   0.70745   1.000
    H222    H    0.43070   0.25750   0.02090   1.000
    H223    H    0.46310   0.26550   0.16710   1.000
    H224    H    0.40940   0.15480   0.16950   1.000
    H225    H    0.37750   0.14840   0.02420   1.000
    H226    H    0.39660   0.05120   0.14900   1.000
    H227    H    0.33790   0.94020   0.14520   1.000
    H228    H    0.21970   0.95000   0.04660   1.000
    H229    H    0.27670   0.05980   0.05080   1.000
    H230    H    0.34550   0.78420   0.12960   1.000
    H231    H    0.40070   0.72860   0.12920   1.000
    H232    H    0.41380   0.64610   0.15230   1.000
    H233    H    0.46800   0.58940   0.15430   1.000
    H234    H    0.74250   0.17320   0.68757   1.000
    H235    H    0.82680   0.56930   0.35423   1.000
    H236    H    0.56930   0.74250   0.52090   1.000
    H237    H    0.25750   0.82680   0.18757   1.000
    H238    H    0.17320   0.43070   0.85423   1.000
    H239    H    0.25750   0.43070   0.64577   1.000
    H240    H    0.17320   0.74250   0.97910   1.000
    H241    H    0.56930   0.82680   0.31243   1.000
    H242    H    0.74250   0.56930   0.14577   1.000
    H243    H    0.82680   0.25750   0.47910   1.000
    H244    H    0.43070   0.17320   0.81243   1.000
    H245    H    0.73450   0.19760   0.83377   1.000
    H246    H    0.80240   0.53690   0.50043   1.000
    H247    H    0.53690   0.73450   0.66710   1.000
    H248    H    0.26550   0.80240   0.33377   1.000
    H249    H    0.19760   0.46310   0.00043   1.000
    H250    H    0.26550   0.46310   0.49957   1.000
    H251    H    0.19760   0.73450   0.83290   1.000
    H252    H    0.53690   0.80240   0.16623   1.000
    H253    H    0.73450   0.53690   0.99957   1.000
    H254    H    0.80240   0.26550   0.33290   1.000
    H255    H    0.46310   0.19760   0.66623   1.000
    H256    H    0.84520   0.25460   0.83617   1.000
    H257    H    0.74540   0.59060   0.50283   1.000
    H258    H    0.59060   0.84520   0.66950   1.000
    H259    H    0.15480   0.74540   0.33617   1.000
    H260    H    0.25460   0.40940   0.00283   1.000
    H261    H    0.15480   0.40940   0.49717   1.000
    H262    H    0.25460   0.84520   0.83050   1.000
    H263    H    0.59060   0.74540   0.16383   1.000
    H264    H    0.84520   0.59060   0.99717   1.000
    H265    H    0.74540   0.15480   0.33050   1.000
    H266    H    0.40940   0.25460   0.66383   1.000
    H267    H    0.85160   0.22910   0.69087   1.000
    H268    H    0.77090   0.62250   0.35753   1.000
    H269    H    0.62250   0.85160   0.52420   1.000
    H270    H    0.14840   0.77090   0.19087   1.000
    H271    H    0.22910   0.37750   0.85753   1.000
    H272    H    0.14840   0.37750   0.64247   1.000
    H273    H    0.22910   0.85160   0.97580   1.000
    H274    H    0.62250   0.77090   0.30913   1.000
    H275    H    0.85160   0.62250   0.14247   1.000
    H276    H    0.77090   0.14840   0.47580   1.000
    H277    H    0.37750   0.22910   0.80913   1.000
    H278    H    0.94880   0.34540   0.81567   1.000
    H279    H    0.65460   0.60340   0.48233   1.000
    H280    H    0.60340   0.94880   0.64900   1.000
    H281    H    0.05120   0.65460   0.31567   1.000
    H282    H    0.34540   0.39660   0.98233   1.000
    H283    H    0.05120   0.39660   0.51767   1.000
    H284    H    0.34540   0.94880   0.85100   1.000
    H285    H    0.60340   0.65460   0.18433   1.000
    H286    H    0.94880   0.60340   0.01767   1.000
    H287    H    0.65460   0.05120   0.35100   1.000
    H288    H    0.39660   0.34540   0.68433   1.000
    H289    H    0.05980   0.39770   0.81187   1.000
    H290    H    0.60230   0.66210   0.47853   1.000
    H291    H    0.66210   0.05980   0.64520   1.000
    H292    H    0.94020   0.60230   0.31187   1.000
    H293    H    0.39770   0.33790   0.97853   1.000
    H294    H    0.94020   0.33790   0.52147   1.000
    H295    H    0.39770   0.05980   0.85480   1.000
    H296    H    0.66210   0.60230   0.18813   1.000
    H297    H    0.05980   0.66210   0.02147   1.000
    H298    H    0.60230   0.94020   0.35480   1.000
    H299    H    0.33790   0.39770   0.68813   1.000
    H300    H    0.05000   0.26970   0.71327   1.000
    H301    H    0.73030   0.78030   0.37993   1.000
    H302    H    0.78030   0.05000   0.54660   1.000
    H303    H    0.95000   0.73030   0.21327   1.000
    H304    H    0.26970   0.21970   0.87993   1.000
    H305    H    0.95000   0.21970   0.62007   1.000
    H306    H    0.26970   0.05000   0.95340   1.000
    H307    H    0.78030   0.73030   0.28673   1.000
    H308    H    0.05000   0.78030   0.12007   1.000
    H309    H    0.73030   0.95000   0.45340   1.000
    H310    H    0.05980   0.27670   0.61587   1.000
    H311    H    0.21690   0.94020   0.94920   1.000
    H312    H    0.72330   0.78310   0.28253   1.000
    H313    H    0.94020   0.72330   0.11587   1.000
    H314    H    0.78310   0.05980   0.44920   1.000
    H315    H    0.27670   0.21690   0.78253   1.000
    H316    H    0.21580   0.56130   0.79627   1.000
    H317    H    0.43870   0.65450   0.46293   1.000
    H318    H    0.65450   0.21580   0.62960   1.000
    H319    H    0.78420   0.43870   0.29627   1.000
    H320    H    0.56130   0.34550   0.96293   1.000
    H321    H    0.78420   0.34550   0.53707   1.000
    H322    H    0.56130   0.21580   0.87040   1.000
    H323    H    0.65450   0.43870   0.20373   1.000
    H324    H    0.21580   0.65450   0.03707   1.000
    H325    H    0.43870   0.78420   0.37040   1.000
    H326    H    0.34550   0.56130   0.70373   1.000
    H327    H    0.27140   0.67210   0.79587   1.000
    H328    H    0.32790   0.59930   0.46253   1.000
    H329    H    0.59930   0.27140   0.62920   1.000
    H330    H    0.72860   0.32790   0.29587   1.000
    H331    H    0.67210   0.40070   0.96253   1.000
    H332    H    0.72860   0.40070   0.53747   1.000
    H333    H    0.67210   0.27140   0.87080   1.000
    H334    H    0.59930   0.32790   0.20413   1.000
    H335    H    0.27140   0.59930   0.03747   1.000
    H336    H    0.32790   0.72860   0.37080   1.000
    H337    H    0.40070   0.67210   0.70413   1.000
    H338    H    0.35390   0.76770   0.81897   1.000
    H339    H    0.23230   0.58620   0.48563   1.000
    H340    H    0.58620   0.35390   0.65230   1.000
    H341    H    0.64610   0.23230   0.31897   1.000
    H342    H    0.76770   0.41380   0.98563   1.000
    H343    H    0.64610   0.41380   0.51437   1.000
    H344    H    0.76770   0.35390   0.84770   1.000
    H345    H    0.58620   0.23230   0.18103   1.000
    H346    H    0.35390   0.58620   0.01437   1.000
    H347    H    0.23230   0.64610   0.34770   1.000
    H348    H    0.41380   0.76770   0.68103   1.000
    H349    H    0.41060   0.87860   0.82097   1.000
    H350    H    0.12140   0.53200   0.48763   1.000
    H351    H    0.53200   0.41060   0.65430   1.000
    H352    H    0.58940   0.12140   0.32097   1.000
    H353    H    0.87860   0.46800   0.98763   1.000
    H354    H    0.58940   0.46800   0.51237   1.000
    H355    H    0.87860   0.41060   0.84570   1.000
    H356    H    0.53200   0.12140   0.17903   1.000
    H357    H    0.41060   0.53200   0.01237   1.000
    H358    H    0.12140   0.58940   0.34570   1.000
    H359    H    0.46800   0.87860   0.67903   1.000
loop_
    _geom_bond_atom_site_label_1
    _geom_bond_atom_site_label_2
    _geom_bond_distance
    _geom_bond_site_symmetry_2
    _ccdc_geom_bond_type
    H249   C49       0.93088  1_554   S
    H260   C60       0.92939  1_554   S
    H357   C219      0.93067      .   S
    H346   C206      0.93061      .   S
    H286   C107      0.92904      .   S
    H222   C12       0.92861      .   S
    H297   C119      0.93102      .   S
    H225   C0        0.93075      .   S
    C64    C53       1.38775      .   S
    C64    C75       1.38355      .   S
    C64    H264      0.92939  1_554   S
    C53    C30       1.36612      .   S
    C53    H253      0.93088  1_554   S
    H324   C174      0.92985      .   S
    H335   C185      0.92920      .   S
    C107   C119      1.39919  1_655   S
    C107   C96       1.38380      .   S
    C219   C206      1.39195      .   S
    C219   C19       1.41903      .   S
    C119   C130      1.38190      .   S
    C206   C17       1.39247      .   S
    H228   C5        0.92975      .   S
    H229   C6        0.93101      .   S
    C12    C0        1.35792      .   S
    C12    C11       1.40903      .   S
    C0     C15       1.38605      .   S
    C174   C185      1.39465      .   S
    C174   C7        1.38375      .   S
    C185   C16       1.37742      .   S
    C5     C6        1.37854  1_565   S
    C5     C4        1.38866      .   S
    C96    C75       1.49494      .   S
    C96    C152      1.38913      .   S
    C75    C85       1.38605      .   S
    C6     C1        1.38913      .   S
    C30    C41       1.40903      .   S
    C130   C141      1.38866      .   S
    C7     C8        1.38476      .   S
    C16    C17       1.48338      .   S
    C16    C9        1.37843      .   S
    C17    C18       1.39398      .   S
    C19    C20       1.42056      .   S
    C4     C3        1.38190      .   S
    C11    C13       1.36612      .   S
    C152   C141      1.37854  1_655   S
    C152   H313      0.93101      .   S
    C15    C1        1.49494      .   S
    C15    C14       1.38355      .   S
    C1     C2        1.38380      .   S
    C141   H308      0.92975      .   S
    C9     C8        1.39465      .   S
    C9     H231      0.92920      .   S
    C8     H230      0.92985      .   S
    C85    C41       1.35792      .   S
    C85    H275      0.93075      .   S
    C41    H242      0.92861      .   S
    C18    C20       1.39195      .   S
    C18    H232      0.93061      .   S
    C3     C2        1.39919  1_565   S
    C3     H227      0.93102      .   S
    C20    H233      0.93067      .   S
    C2     H226      0.92904      .   S
    C13    C14       1.38775      .   S
    C13    H223      0.93088      .   S
    C14    H224      0.92939      .   S
    H263   C63       0.92939      .   S
    H252   C52       0.93088      .   S
    H356   C218      0.93067      .   S
    H345   C205      0.93061      .   S
    H285   C106      0.92904      .   S
    H237   C36       0.92861      .   S
    H296   C118      0.93102      .   S
    H270   C81       0.93075      .   S
    C63    C52       1.38775      .   S
    C63    C74       1.38355      .   S
    C52    C29       1.36612      .   S
    H323   C173      0.92985      .   S
    H334   C184      0.92920      .   S
    C106   C118      1.39919      .   S
    C106   C95       1.38380      .   S
    C218   C205      1.39195      .   S
    C218   C209      1.41925      .   S
    C118   C129      1.38190      .   S
    C205   C196      1.39269      .   S
    H303   C136      0.92975      .   S
    H159   C147      0.93101      .   S
    C36    C81       1.35792      .   S
    C36    C25       1.40903      .   S
    C81    C70       1.38605      .   S
    C173   C184      1.39465      .   S
    C173   C164      1.38389      .   S
    C184   C191      1.37757      .   S
    C136   C147      1.37854  1_655   S
    C136   C125      1.38866      .   S
    C95    C74       1.49494      .   S
    C95    C151      1.38913      .   S
    C74    C84       1.38605      .   S
    C147   C91       1.38913      .   S
    C29    C40       1.40903      .   S
    C129   C140      1.38866      .   S
    C209   C214      1.42056      .   S
    C196   C191      1.48338      .   S
    C196   C201      1.39398      .   S
    C191   C180      1.37843      .   S
    C164   C169      1.38476      .   S
    C125   C114      1.38190      .   S
    C25    C48       1.36612      .   S
    C151   C140      1.37854      .   S
    C151   H312      0.93101      .   S
    C70    C91       1.49494      .   S
    C70    C59       1.38355      .   S
    C91    C102      1.38380      .   S
    C140   H307      0.92975      .   S
    C180   C169      1.39465      .   S
    C180   H330      0.92920      .   S
    C169   H319      0.92985      .   S
    C84    C40       1.35792      .   S
    C84    H274      0.93075      .   S
    C40    H241      0.92861      .   S
    C201   C214      1.39195      .   S
    C201   H341      0.93061      .   S
    C114   C102      1.39919  1_655   S
    C114   H292      0.93102      .   S
    C214   H352      0.93067      .   S
    C102   H281      0.92904      .   S
    C48    C59       1.38775      .   S
    C48    H248      0.93088      .   S
    C59    H259      0.92939      .   S
    H265   C65       0.92939      .   S
    H254   C54       0.93088      .   S
    H358   C220      0.93067      .   S
    H347   C207      0.93061      .   S
    H287   C108      0.92904      .   S
    H235   C34       0.92861      .   S
    H298   C120      0.93102      .   S
    H268   C79       0.93075      .   S
    C65    C54       1.38775      .   S
    C65    C76       1.38355      .   S
    C54    C31       1.36612      .   S
    H325   C175      0.92985      .   S
    H336   C186      0.92920      .   S
    C108   C120      1.39919  1_545   S
    C108   C97       1.38380      .   S
    C220   C207      1.39195      .   S
    C220   C111      1.41903      .   S
    C120   C131      1.38190      .   S
    C207   C194      1.39247      .   S
    H301   C134      0.92975      .   S
    H157   C145      0.93101      .   S
    C34    C79       1.35792      .   S
    C34    C23       1.40903      .   S
    C79    C68       1.38605      .   S
    C175   C186      1.39465      .   S
    C175   C162      1.38375      .   S
    C186   C189      1.37742      .   S
    C134   C145      1.37854      .   S
    C134   C123      1.38866      .   S
    C97    C76       1.49494      .   S
    C97    C153      1.38913      .   S
    C76    C86       1.38605      .   S
    C145   C89       1.38913      .   S
    C31    C42       1.40903      .   S
    C131   C142      1.38866      .   S
    C194   C189      1.48338      .   S
    C194   C199      1.39398      .   S
    C111   C212      1.42056      .   S
    C189   C178      1.37843      .   S
    C162   C167      1.38476      .   S
    C123   C47       1.38190      .   S
    C23    C45       1.36612      .   S
    C153   C142      1.37854  1_545   S
    C153   H314      0.93101      .   S
    C68    C89       1.49494      .   S
    C68    C57       1.38355      .   S
    C89    C100      1.38380      .   S
    C142   H309      0.92975      .   S
    C178   C167      1.39465      .   S
    C178   H328      0.92920      .   S
    C167   H317      0.92985      .   S
    C86    C42       1.35792      .   S
    C86    H276      0.93075      .   S
    C42    H243      0.92861      .   S
    C199   C212      1.39195      .   S
    C199   H339      0.93061      .   S
    C47    C100      1.39919      .   S
    C47    H290      0.93102      .   S
    C212   H350      0.93067      .   S
    C100   H279      0.92904      .   S
    C45    C57       1.38775      .   S
    C45    H246      0.93088      .   S
    C57    H257      0.92939      .   S
    H261   C61       0.92939      .   S
    H250   C50       0.93088      .   S
    H354   C216      0.93067      .   S
    H343   C203      0.93061      .   S
    H283   C104      0.92904      .   S
    H236   C35       0.92861      .   S
    H294   C116      0.93102      .   S
    H269   C80       0.93075      .   S
    C61    C50       1.38775      .   S
    C61    C72       1.38355      .   S
    C50    C27       1.36612      .   S
    H321   C171      0.92985      .   S
    H332   C182      0.92920      .   S
    C104   C116      1.39919  1_455   S
    C104   C93       1.38380      .   S
    C216   C203      1.39195      .   S
    C216   C112      1.41903      .   S
    C116   C127      1.38190      .   S
    C203   C195      1.39247      .   S
    H302   C135      0.92975      .   S
    H158   C146      0.93101      .   S
    C35    C80       1.35792      .   S
    C35    C24       1.40903      .   S
    C80    C69       1.38605      .   S
    C171   C182      1.39465      .   S
    C171   C163      1.38375      .   S
    C182   C190      1.37742      .   S
    C135   C146      1.37854  1_545   S
    C135   C124      1.38866      .   S
    C93    C72       1.49494      .   S
    C93    C149      1.38913      .   S
    C72    C10       1.38605      .   S
    C146   C90       1.38913      .   S
    C27    C38       1.40903      .   S
    C127   C138      1.38866      .   S
    C112   C213      1.42056      .   S
    C195   C190      1.48338      .   S
    C195   C200      1.39398      .   S
    C190   C179      1.37843      .   S
    C163   C168      1.38476      .   S
    C124   C113      1.38190      .   S
    C24    C21       1.36612      .   S
    C149   C138      1.37854  1_455   S
    C149   H310      0.93101      .   S
    C69    C90       1.49494      .   S
    C69    C58       1.38355      .   S
    C90    C101      1.38380      .   S
    C138   H305      0.92975      .   S
    C179   C168      1.39465      .   S
    C179   H329      0.92920      .   S
    C168   H318      0.92985      .   S
    C10    C38       1.35792      .   S
    C10    H272      0.93075      .   S
    C38    H239      0.92861      .   S
    C200   C213      1.39195      .   S
    C200   H340      0.93061      .   S
    C113   C101      1.39919  1_545   S
    C113   H291      0.93102      .   S
    C213   H351      0.93067      .   S
    C101   H280      0.92904      .   S
    C21    C58       1.38775      .   S
    C21    H247      0.93088      .   S
    C58    H258      0.92939      .   S
    H266   C66       0.92939      .   S
    H255   C55       0.93088      .   S
    H359   C221      0.93067      .   S
    H348   C208      0.93061      .   S
    H288   C109      0.92904      .   S
    H234   C33       0.92861      .   S
    H299   C121      0.93102      .   S
    H267   C78       0.93075      .   S
    C66    C55       1.38775      .   S
    C66    C77       1.38355      .   S
    C55    C32       1.36612      .   S
    H326   C176      0.92985      .   S
    H337   C187      0.92920      .   S
    C109   C121      1.39919      .   S
    C109   C98       1.38380      .   S
    C221   C208      1.39195      .   S
    C221   C110      1.41925      .   S
    C121   C132      1.38190      .   S
    C208   C193      1.39269      .   S
    H300   C133      0.92975      .   S
    H156   C144      0.93101      .   S
    C33    C78       1.35792      .   S
    C33    C22       1.40903      .   S
    C78    C67       1.38605      .   S
    C176   C187      1.39465      .   S
    C176   C161      1.38389      .   S
    C187   C188      1.37757      .   S
    C133   C144      1.37854  1_455   S
    C133   C122      1.38866      .   S
    C98    C77       1.49494      .   S
    C98    C154      1.38913      .   S
    C77    C87       1.38605      .   S
    C144   C88       1.38913      .   S
    C32    C43       1.40903      .   S
    C132   C143      1.38866      .   S
    C188   C193      1.48338      .   S
    C188   C177      1.37843      .   S
    C193   C198      1.39398      .   S
    C110   C211      1.42056      .   S
    C161   C166      1.38476      .   S
    C122   C46       1.38190      .   S
    C22    C44       1.36612      .   S
    C154   C143      1.37854      .   S
    C154   H315      0.93101      .   S
    C67    C88       1.49494      .   S
    C67    C56       1.38355      .   S
    C88    C99       1.38380      .   S
    C143   H155      0.92975      .   S
    C177   C166      1.39465      .   S
    C177   H327      0.92920      .   S
    C166   H316      0.92985      .   S
    C87    C43       1.35792      .   S
    C87    H277      0.93075      .   S
    C43    H244      0.92861      .   S
    C198   C211      1.39195      .   S
    C198   H338      0.93061      .   S
    C46    C99       1.39919  1_455   S
    C46    H289      0.93102      .   S
    C211   H349      0.93067      .   S
    C99    H278      0.92904      .   S
    C44    C56       1.38775      .   S
    C44    H245      0.93088      .   S
    C56    H256      0.92939      .   S
    H262   C62       0.92939      .   S
    H251   C51       0.93088      .   S
    H355   C217      0.93067      .   S
    H344   C204      0.93061      .   S
    H284   C105      0.92904      .   S
    H238   C37       0.92861      .   S
    H295   C117      0.93102      .   S
    H271   C82       0.93075      .   S
    C62    C51       1.38775      .   S
    C62    C73       1.38355      .   S
    C51    C28       1.36612      .   S
    H322   C172      0.92985      .   S
    H333   C183      0.92920      .   S
    C105   C117      1.39919  1_565   S
    C105   C94       1.38380      .   S
    C217   C204      1.39195      .   S
    C217   C210      1.41903      .   S
    C117   C128      1.38190      .   S
    C204   C197      1.39247      .   S
    H304   C137      0.92975      .   S
    H160   C148      0.93101      .   S
    C37    C82       1.35792      .   S
    C37    C26       1.40903      .   S
    C82    C71       1.38605      .   S
    C172   C183      1.39465      .   S
    C172   C165      1.38375      .   S
    C183   C192      1.37742      .   S
    C137   C148      1.37854      .   S
    C137   C126      1.38866      .   S
    C94    C73       1.49494      .   S
    C94    C150      1.38913      .   S
    C73    C83       1.38605      .   S
    C148   C92       1.38913      .   S
    C28    C39       1.40903      .   S
    C128   C139      1.38866      .   S
    C165   C170      1.38476      .   S
    C210   C215      1.42056      .   S
    C192   C197      1.48338      .   S
    C192   C181      1.37843      .   S
    C197   C202      1.39398      .   S
    C126   C115      1.38190      .   S
    C26    C49       1.36612      .   S
    C150   C139      1.37854  1_565   S
    C150   H311      0.93101      .   S
    C71    C92       1.49494      .   S
    C71    C60       1.38355      .   S
    C92    C103      1.38380      .   S
    C139   H306      0.92975      .   S
    C181   C170      1.39465      .   S
    C181   H331      0.92920      .   S
    C170   H320      0.92985      .   S
    C83    C39       1.35792      .   S
    C83    H273      0.93075      .   S
    C39    H240      0.92861      .   S
    C202   C215      1.39195      .   S
    C202   H342      0.93061      .   S
    C115   C103      1.39919      .   S
    C115   H293      0.93102      .   S
    C215   H353      0.93067      .   S
    C103   H282      0.92904      .   S
    C49    C60       1.38775      .   S
