# CIF file generated by openbabel 2.4.90, see http://openbabel.sf.net
data_I
_chemical_name_common ''
_cell_length_a 24.057
_cell_length_b 24.057
_cell_length_c 26.996
_cell_angle_alpha 90
_cell_angle_beta 90
_cell_angle_gamma 120
_space_group_name_H-M_alt 'P 1'
_space_group_name_Hall 'P 1'
loop_
    _symmetry_equiv_pos_as_xyz
    x,y,z
loop_
    _atom_site_label
    _atom_site_type_symbol
    _atom_site_fract_x
    _atom_site_fract_y
    _atom_site_fract_z
    _atom_site_occupancy
    C0      C    0.23843   0.86207   0.08916   1.000
    C1      C    0.17178   0.82822   0.08330   1.000
    C2      C    0.27162   0.82833   0.08888   1.000
    C3      C    0.23855   0.76145   0.08330   1.000
    C4      C    0.50502   0.48319   0.87528   1.000
    C5      C    0.44964   0.43649   0.85602   1.000
    C6      C    0.23855   0.47710   0.74997   1.000
    C7      C    0.52290   0.76145   0.41663   1.000
    C8      C    0.76145   0.23855   0.58330   1.000
    C9      C    0.13793   0.37636   0.75583   1.000
    C10     C    0.62364   0.76157   0.42249   1.000
    C11     C    0.76157   0.13793   0.58916   1.000
    C12     C    0.86207   0.62364   0.25583   1.000
    C13     C    0.37636   0.23843   0.92249   1.000
    C14     C    0.86207   0.23843   0.57751   1.000
    C15     C    0.37636   0.13793   0.91084   1.000
    C16     C    0.76157   0.62364   0.24417   1.000
    C17     C    0.13793   0.76157   0.07751   1.000
    C18     C    0.62364   0.86207   0.41084   1.000
    C19     C    0.23843   0.37636   0.74417   1.000
    C20     C    0.17178   0.34356   0.74997   1.000
    C21     C    0.65644   0.82822   0.41663   1.000
    C22     C    0.82822   0.17178   0.58330   1.000
    C23     C    0.82822   0.65644   0.24997   1.000
    C24     C    0.34356   0.17178   0.91663   1.000
    C25     C    0.17167   0.44329   0.75555   1.000
    C26     C    0.55671   0.72838   0.42221   1.000
    C27     C    0.72838   0.17167   0.58888   1.000
    C28     C    0.82833   0.55671   0.25555   1.000
    C29     C    0.44329   0.27162   0.92221   1.000
    C30     C    0.82833   0.27162   0.57779   1.000
    C31     C    0.44329   0.17167   0.91112   1.000
    C32     C    0.72838   0.55671   0.24445   1.000
    C33     C    0.17167   0.72838   0.07779   1.000
    C34     C    0.55671   0.82833   0.41112   1.000
    C35     C    0.27162   0.44329   0.74445   1.000
    C36     C    0.76145   0.52290   0.24997   1.000
    C37     C    0.47710   0.23855   0.91663   1.000
    C38     C    0.51681   0.02183   0.54195   1.000
    C39     C    0.97817   0.49498   0.20861   1.000
    C40     C    0.49498   0.51681   0.37528   1.000
    C41     C    0.48319   0.97817   0.04195   1.000
    C42     C    0.02183   0.50502   0.70861   1.000
    C43     C    0.48319   0.50502   0.79139   1.000
    C44     C    0.02183   0.51681   0.12472   1.000
    C45     C    0.49498   0.97817   0.45805   1.000
    C46     C    0.51681   0.49498   0.29139   1.000
    C47     C    0.97817   0.48319   0.62472   1.000
    C48     C    0.50502   0.02183   0.95805   1.000
    C49     C    0.56351   0.01315   0.52269   1.000
    C50     C    0.98685   0.55036   0.18935   1.000
    C51     C    0.55036   0.56351   0.35602   1.000
    C52     C    0.43649   0.98685   0.02269   1.000
    C53     C    0.01315   0.44964   0.68935   1.000
    C54     C    0.43649   0.44964   0.81065   1.000
    C55     C    0.01315   0.56351   0.14398   1.000
    C56     C    0.55036   0.98685   0.47731   1.000
    C57     C    0.56351   0.55036   0.31065   1.000
    C58     C    0.98685   0.43649   0.64398   1.000
    C59     C    0.44964   0.01315   0.97731   1.000
    H60     H    0.14950   0.85050   0.08330   1.000
    H61     H    0.31600   0.85040   0.09240   1.000
    H62     H    0.42280   0.39850   0.87270   1.000
    H63     H    0.14950   0.29900   0.74997   1.000
    H64     H    0.70100   0.85050   0.41663   1.000
    H65     H    0.85050   0.14950   0.58330   1.000
    H66     H    0.85050   0.70100   0.24997   1.000
    H67     H    0.29900   0.14950   0.91663   1.000
    H68     H    0.14960   0.46560   0.75907   1.000
    H69     H    0.53440   0.68400   0.42573   1.000
    H70     H    0.68400   0.14960   0.59240   1.000
    H71     H    0.85040   0.53440   0.25907   1.000
    H72     H    0.46560   0.31600   0.92573   1.000
    H73     H    0.85040   0.31600   0.57427   1.000
    H74     H    0.46560   0.14960   0.90760   1.000
    H75     H    0.68400   0.53440   0.24093   1.000
    H76     H    0.14960   0.68400   0.07427   1.000
    H77     H    0.53440   0.85040   0.40760   1.000
    H78     H    0.31600   0.46560   0.74093   1.000
    H79     H    0.60150   0.02430   0.53937   1.000
    H80     H    0.97570   0.57720   0.20603   1.000
    H81     H    0.57720   0.60150   0.37270   1.000
    H82     H    0.39850   0.97570   0.03937   1.000
    H83     H    0.02430   0.42280   0.70603   1.000
    H84     H    0.39850   0.42280   0.79397   1.000
    H85     H    0.02430   0.60150   0.12730   1.000
    H86     H    0.57720   0.97570   0.46063   1.000
    H87     H    0.60150   0.57720   0.29397   1.000
    H88     H    0.97570   0.39850   0.62730   1.000
    H89     H    0.42280   0.02430   0.96063   1.000
    S90     S    0.54390   0.54390   0.83333   1.000
    S91     S    0.45610   0.00000   0.49997   1.000
    S92     S    0.00000   0.45610   0.16667   1.000
    S93     S    0.45610   0.45610   0.33333   1.000
    S94     S    0.54390   0.00000   0.99997   1.000
    S95     S    0.00000   0.54390   0.66667   1.000
loop_
    _geom_bond_atom_site_label_1
    _geom_bond_atom_site_label_2
    _geom_bond_distance
    _geom_bond_site_symmetry_2
    _ccdc_geom_bond_type
    C52    H82       0.92996      .   S
    C52    C41       1.34562      .   S
    C52    C59       1.34203  1_564   S
    C41    S94       1.71062  1_564   S
    H76    C33       0.92949      .   S
    C17    C33       1.39445      .   S
    C17    C1        1.39741      .   S
    C33    C3        1.40132      .   S
    C3     C2        1.40152      .   S
    C1     H60       0.92836      .   S
    C1     C0        1.39762      .   S
    C2     C0        1.39445      .   S
    C2     H61       0.92949      .   S
    C44    C55       1.34562      .   S
    C44    S92       1.71002      .   S
    H85    C55       0.92996      .   S
    C55    C50       1.34179  1_455   S
    S92    C39       1.70996  1_455   S
    C50    H80       0.92996      .   S
    C50    C39       1.34562      .   S
    H75    C32       0.92949      .   S
    C16    C32       1.39445      .   S
    C16    C23       1.39744      .   S
    C32    C36       1.40135      .   S
    C36    C28       1.40152      .   S
    C23    H66       0.92836      .   S
    C23    C12       1.39762      .   S
    C28    C12       1.39445      .   S
    C28    H71       0.92949      .   S
    C46    C57       1.34562      .   S
    C46    S93       1.70996      .   S
    H87    C57       0.92996      .   S
    C57    C51       1.34179      .   S
    S93    C40       1.71002      .   S
    C51    H81       0.92996      .   S
    C51    C40       1.34562      .   S
    H77    C34       0.92949      .   S
    C18    C34       1.39445      .   S
    C18    C21       1.39741      .   S
    C34    C7        1.40132      .   S
    C21    H64       0.92836      .   S
    C21    C10       1.39762      .   S
    C7     C26       1.40152      .   S
    C26    C10       1.39445      .   S
    C26    H69       0.92949      .   S
    C45    C56       1.34562      .   S
    C45    S91       1.70954  1_565   S
    H86    C56       0.92996      .   S
    C56    C49       1.34203  1_565   S
    S91    C38       1.71062      .   S
    C49    H79       0.92996      .   S
    C49    C38       1.34562      .   S
    H73    C30       0.92949      .   S
    C14    C30       1.39445      .   S
    C14    C22       1.39741      .   S
    C30    C8        1.40132      .   S
    C22    H65       0.92836      .   S
    C22    C11       1.39762      .   S
    C8     C27       1.40152      .   S
    C27    C11       1.39445      .   S
    C27    H70       0.92949      .   S
    C47    C58       1.34562      .   S
    C47    S95       1.71002  1_655   S
    H88    C58       0.92996      .   S
    C58    C53       1.34179  1_655   S
    S95    C42       1.70996      .   S
    C53    H83       0.92996      .   S
    C53    C42       1.34562      .   S
    H78    C35       0.92949      .   S
    C19    C35       1.39445      .   S
    C19    C20       1.39744      .   S
    C35    C6        1.40135      .   S
    C20    H63       0.92836      .   S
    C20    C9        1.39762      .   S
    C6     C25       1.40152      .   S
    C25    C9        1.39445      .   S
    C25    H68       0.92949      .   S
    C43    C54       1.34562      .   S
    C43    S90       1.70996      .   S
    H84    C54       0.92996      .   S
    C54    C5        1.34179      .   S
    S90    C4        1.71002      .   S
    C5     H62       0.92996      .   S
    C5     C4        1.34562      .   S
    H74    C31       0.92949      .   S
    C15    C31       1.39445      .   S
    C15    C24       1.39741      .   S
    C31    C37       1.40132      .   S
    C37    C29       1.40152      .   S
    C24    H67       0.92836      .   S
    C24    C13       1.39762      .   S
    C29    C13       1.39445      .   S
    C29    H72       0.92949      .   S
    C48    C59       1.34562      .   S
    C48    S94       1.70954      .   S
    H89    C59       0.92996      .   S
