# CIF file generated by openbabel 2.4.90, see http://openbabel.sf.net
data_I
_chemical_name_common ''
_cell_length_a 24.057
_cell_length_b 24.057
_cell_length_c 26.996
_cell_angle_alpha 90
_cell_angle_beta 90
_cell_angle_gamma 120
_space_group_name_H-M_alt 'P 1'
_space_group_name_Hall 'P 1'
loop_
    _symmetry_equiv_pos_as_xyz
    x,y,z
loop_
    _atom_site_label
    _atom_site_type_symbol
    _atom_site_fract_x
    _atom_site_fract_y
    _atom_site_fract_z
    _atom_site_occupancy
    C0      C    0.50502   0.48319   0.87528   1.000
    C1      C    0.44964   0.43649   0.85602   1.000
    C2      C    0.51681   0.02183   0.54195   1.000
    C3      C    0.97817   0.49498   0.20861   1.000
    C4      C    0.49498   0.51681   0.37528   1.000
    C5      C    0.48319   0.97817   0.04195   1.000
    C6      C    0.02183   0.50502   0.70861   1.000
    C7      C    0.48319   0.50502   0.79139   1.000
    C8      C    0.02183   0.51681   0.12472   1.000
    C9      C    0.49498   0.97817   0.45805   1.000
    C10     C    0.51681   0.49498   0.29139   1.000
    C11     C    0.97817   0.48319   0.62472   1.000
    C12     C    0.50502   0.02183   0.95805   1.000
    C13     C    0.56351   0.01315   0.52269   1.000
    C14     C    0.98685   0.55036   0.18935   1.000
    C15     C    0.55036   0.56351   0.35602   1.000
    C16     C    0.43649   0.98685   0.02269   1.000
    C17     C    0.01315   0.44964   0.68935   1.000
    C18     C    0.43649   0.44964   0.81065   1.000
    C19     C    0.01315   0.56351   0.14398   1.000
    C20     C    0.55036   0.98685   0.47731   1.000
    C21     C    0.56351   0.55036   0.31065   1.000
    C22     C    0.98685   0.43649   0.64398   1.000
    C23     C    0.44964   0.01315   0.97731   1.000
    H24     H    0.42280   0.39850   0.87270   1.000
    H25     H    0.60150   0.02430   0.53937   1.000
    H26     H    0.97570   0.57720   0.20603   1.000
    H27     H    0.57720   0.60150   0.37270   1.000
    H28     H    0.39850   0.97570   0.03937   1.000
    H29     H    0.02430   0.42280   0.70603   1.000
    H30     H    0.39850   0.42280   0.79397   1.000
    H31     H    0.02430   0.60150   0.12730   1.000
    H32     H    0.57720   0.97570   0.46063   1.000
    H33     H    0.60150   0.57720   0.29397   1.000
    H34     H    0.97570   0.39850   0.62730   1.000
    H35     H    0.42280   0.02430   0.96063   1.000
    S36     S    0.54390   0.54390   0.83333   1.000
    S37     S    0.45610   0.00000   0.49997   1.000
    S38     S    0.00000   0.45610   0.16667   1.000
    S39     S    0.45610   0.45610   0.33333   1.000
    S40     S    0.54390   0.00000   0.99997   1.000
    S41     S    0.00000   0.54390   0.66667   1.000
loop_
    _geom_bond_atom_site_label_1
    _geom_bond_atom_site_label_2
    _geom_bond_distance
    _geom_bond_site_symmetry_2
    _ccdc_geom_bond_type
    C16    H28       0.92996      .   S
    C16    C5        1.34562      .   S
    C16    C23       1.34203  1_564   S
    C5     S40       1.71062  1_564   S
    C8     C19       1.34562      .   S
    C8     S38       1.71002      .   S
    H31    C19       0.92996      .   S
    C19    C14       1.34179  1_455   S
    S38    C3        1.70996  1_455   S
    C14    H26       0.92996      .   S
    C14    C3        1.34562      .   S
    C10    C21       1.34562      .   S
    C10    S39       1.70996      .   S
    H33    C21       0.92996      .   S
    C21    C15       1.34179      .   S
    S39    C4        1.71002      .   S
    C15    H27       0.92996      .   S
    C15    C4        1.34562      .   S
    C9     C20       1.34562      .   S
    C9     S37       1.70954  1_565   S
    H32    C20       0.92996      .   S
    C20    C13       1.34203  1_565   S
    S37    C2        1.71062      .   S
    C13    H25       0.92996      .   S
    C13    C2        1.34562      .   S
    C11    C22       1.34562      .   S
    C11    S41       1.71002  1_655   S
    H34    C22       0.92996      .   S
    C22    C17       1.34179  1_655   S
    S41    C6        1.70996      .   S
    C17    H29       0.92996      .   S
    C17    C6        1.34562      .   S
    C7     C18       1.34562      .   S
    C7     S36       1.70996      .   S
    H30    C18       0.92996      .   S
    C18    C1        1.34179      .   S
    S36    C0        1.71002      .   S
    C1     H24       0.92996      .   S
    C1     C0        1.34562      .   S
    C12    C23       1.34562      .   S
    C12    S40       1.70954      .   S
    H35    C23       0.92996      .   S
