# CIF file generated by openbabel 2.4.90, see http://openbabel.sf.net
data_I
_chemical_name_common ''
_cell_length_a 24.057
_cell_length_b 24.057
_cell_length_c 26.996
_cell_angle_alpha 90
_cell_angle_beta 90
_cell_angle_gamma 120
_space_group_name_H-M_alt 'P 1'
_space_group_name_Hall 'P 1'
loop_
    _symmetry_equiv_pos_as_xyz
    x,y,z
loop_
    _atom_site_label
    _atom_site_type_symbol
    _atom_site_fract_x
    _atom_site_fract_y
    _atom_site_fract_z
    _atom_site_occupancy
    C0      C    0.34584   0.85814   0.25773   1.000
    C1      C    0.48770   0.34584   0.09106   1.000
    C2      C    0.48159   0.51841   0.08330   1.000
    C3      C    0.50502   0.48319   0.87528   1.000
    C4      C    0.44964   0.43649   0.85602   1.000
    C5      C    0.53379   0.48932   0.92589   1.000
    C6      C    0.65416   0.14186   0.75773   1.000
    C7      C    0.85814   0.51230   0.42439   1.000
    C8      C    0.51230   0.65416   0.59106   1.000
    C9      C    0.14186   0.48770   0.92439   1.000
    C10     C    0.34584   0.48770   0.57561   1.000
    C11     C    0.14186   0.65416   0.90894   1.000
    C12     C    0.51230   0.85814   0.24227   1.000
    C13     C    0.65416   0.51230   0.07561   1.000
    C14     C    0.85814   0.34584   0.40894   1.000
    C15     C    0.48770   0.14186   0.74227   1.000
    C16     C    0.96318   0.48159   0.91663   1.000
    C17     C    0.48159   0.96318   0.74997   1.000
    C18     C    0.03682   0.51841   0.41663   1.000
    C19     C    0.51841   0.48159   0.58330   1.000
    C20     C    0.51841   0.03682   0.24997   1.000
    O21     O    0.49346   0.62481   0.63014   1.000
    O22     O    0.13135   0.50654   0.96347   1.000
    O23     O    0.37519   0.86865   0.29680   1.000
    O24     O    0.50654   0.37519   0.13014   1.000
    O25     O    0.86865   0.49346   0.46347   1.000
    O26     O    0.62481   0.13135   0.79680   1.000
    O27     O    0.50480   0.98951   0.70985   1.000
    O28     O    0.01049   0.51529   0.37651   1.000
    C29     C    0.51681   0.02183   0.54195   1.000
    C30     C    0.97817   0.49498   0.20861   1.000
    C31     C    0.49498   0.51681   0.37528   1.000
    C32     C    0.48319   0.97817   0.04195   1.000
    C33     C    0.02183   0.50502   0.70861   1.000
    C34     C    0.48319   0.50502   0.79139   1.000
    C35     C    0.02183   0.51681   0.12472   1.000
    C36     C    0.49498   0.97817   0.45805   1.000
    C37     C    0.51681   0.49498   0.29139   1.000
    C38     C    0.97817   0.48319   0.62472   1.000
    C39     C    0.50502   0.02183   0.95805   1.000
    C40     C    0.56351   0.01315   0.52269   1.000
    C41     C    0.98685   0.55036   0.18935   1.000
    C42     C    0.55036   0.56351   0.35602   1.000
    C43     C    0.43649   0.98685   0.02269   1.000
    C44     C    0.01315   0.44964   0.68935   1.000
    C45     C    0.43649   0.44964   0.81065   1.000
    C46     C    0.01315   0.56351   0.14398   1.000
    C47     C    0.55036   0.98685   0.47731   1.000
    C48     C    0.56351   0.55036   0.31065   1.000
    C49     C    0.98685   0.43649   0.64398   1.000
    C50     C    0.44964   0.01315   0.97731   1.000
    C51     C    0.51068   0.04447   0.59256   1.000
    C52     C    0.95553   0.46621   0.25922   1.000
    C53     C    0.46621   0.51068   0.42589   1.000
    C54     C    0.48932   0.95553   0.09256   1.000
    C55     C    0.04447   0.53379   0.75922   1.000
    C56     C    0.48932   0.53379   0.74078   1.000
    C57     C    0.04447   0.51068   0.07411   1.000
    C58     C    0.46621   0.95553   0.40744   1.000
    C59     C    0.51068   0.46621   0.24078   1.000
    C60     C    0.95553   0.48932   0.57411   1.000
    C61     C    0.53379   0.04447   0.90744   1.000
    H62     H    0.42280   0.39850   0.87270   1.000
    H63     H    0.60150   0.02430   0.53937   1.000
    H64     H    0.97570   0.57720   0.20603   1.000
    H65     H    0.57720   0.60150   0.37270   1.000
    H66     H    0.39850   0.97570   0.03937   1.000
    H67     H    0.02430   0.42280   0.70603   1.000
    H68     H    0.39850   0.42280   0.79397   1.000
    H69     H    0.02430   0.60150   0.12730   1.000
    H70     H    0.57720   0.97570   0.46063   1.000
    H71     H    0.60150   0.57720   0.29397   1.000
    H72     H    0.97570   0.39850   0.62730   1.000
    H73     H    0.42280   0.02430   0.96063   1.000
    O74     O    0.51184   0.43904   0.95077   1.000
    O75     O    0.49334   0.36941   0.04965   1.000
    O76     O    0.62481   0.49346   0.03653   1.000
    O77     O    0.48471   0.49520   0.04318   1.000
    O78     O    0.57690   0.54038   0.94039   1.000
    O79     O    0.56096   0.07280   0.61744   1.000
    O80     O    0.92720   0.48816   0.28410   1.000
    O81     O    0.48816   0.56096   0.45077   1.000
    O82     O    0.43904   0.92720   0.11744   1.000
    O83     O    0.07280   0.51184   0.78410   1.000
    O84     O    0.43904   0.51184   0.71590   1.000
    O85     O    0.07280   0.56096   0.04923   1.000
    O86     O    0.48816   0.92720   0.38256   1.000
    O87     O    0.56096   0.48816   0.21590   1.000
    O88     O    0.92720   0.43904   0.54923   1.000
    O89     O    0.51184   0.07280   0.88256   1.000
    O90     O    0.63059   0.12393   0.71632   1.000
    O91     O    0.87607   0.50666   0.38298   1.000
    O92     O    0.50666   0.63059   0.54965   1.000
    O93     O    0.36941   0.87607   0.21632   1.000
    O94     O    0.12393   0.49334   0.88298   1.000
    O95     O    0.36941   0.49334   0.61702   1.000
    O96     O    0.12393   0.63059   0.95035   1.000
    O97     O    0.50666   0.87607   0.28368   1.000
    O98     O    0.63059   0.50666   0.11702   1.000
    O99     O    0.87607   0.36941   0.45035   1.000
    O100    O    0.49334   0.12393   0.78368   1.000
    O101    O    0.50654   0.13135   0.70320   1.000
    O102    O    0.86865   0.37519   0.36986   1.000
    O103    O    0.37519   0.50654   0.53653   1.000
    O104    O    0.49346   0.86865   0.20320   1.000
    O105    O    0.13135   0.62481   0.86986   1.000
    O106    O    0.51529   0.50480   0.54318   1.000
    O107    O    0.49520   0.01049   0.20985   1.000
    O108    O    0.98951   0.48471   0.87651   1.000
    O109    O    0.49520   0.48471   0.62349   1.000
    O110    O    0.98951   0.50480   0.95682   1.000
    O111    O    0.51529   0.01049   0.29015   1.000
    O112    O    0.50480   0.51529   0.12349   1.000
    O113    O    0.01049   0.49520   0.45682   1.000
    O114    O    0.48471   0.98951   0.79015   1.000
    O115    O    0.45962   0.03652   0.60706   1.000
    O116    O    0.96348   0.42310   0.27372   1.000
    O117    O    0.42310   0.45962   0.44039   1.000
    O118    O    0.54038   0.96348   0.10706   1.000
    O119    O    0.03652   0.57690   0.77372   1.000
    O120    O    0.54038   0.57690   0.72628   1.000
    O121    O    0.03652   0.45962   0.05961   1.000
    O122    O    0.42310   0.96348   0.39294   1.000
    O123    O    0.45962   0.42310   0.22628   1.000
    O124    O    0.96348   0.54038   0.55961   1.000
    O125    O    0.57690   0.03652   0.89294   1.000
    S126    S    0.54390   0.54390   0.83333   1.000
    S127    S    0.45610   0.00000   0.49997   1.000
    S128    S    0.00000   0.45610   0.16667   1.000
    S129    S    0.45610   0.45610   0.33333   1.000
    S130    S    0.54390   0.00000   0.99997   1.000
    S131    S    0.00000   0.54390   0.66667   1.000
    Zn132   Zn   0.53463   0.45653   0.02073   1.000
    Zn133   Zn   0.54347   0.07810   0.68739   1.000
    Zn134   Zn   0.92190   0.46537   0.35406   1.000
    Zn135   Zn   0.46537   0.54347   0.52073   1.000
    Zn136   Zn   0.45653   0.92190   0.18739   1.000
    Zn137   Zn   0.07810   0.53463   0.85406   1.000
    Zn138   Zn   0.45653   0.53463   0.64594   1.000
    Zn139   Zn   0.07810   0.54347   0.97927   1.000
    Zn140   Zn   0.46537   0.92190   0.31261   1.000
    Zn141   Zn   0.54347   0.46537   0.14594   1.000
    Zn142   Zn   0.92190   0.45653   0.47927   1.000
    Zn143   Zn   0.53463   0.07810   0.81261   1.000
loop_
    _geom_bond_atom_site_label_1
    _geom_bond_atom_site_label_2
    _geom_bond_distance
    _geom_bond_site_symmetry_2
    _ccdc_geom_bond_type
    Zn132  O76       1.93659      .   S
    Zn132  O77       1.94735      .   S
    Zn132  O75       1.97660      .   S
    Zn132  O74       1.95292  1_554   S
    C43    H66       0.92996      .   S
    C43    C32       1.34562      .   S
    C43    C50       1.34203  1_564   S
    O76    C13       1.22351      .   S
    C32    C54       1.50512      .   S
    C32    S130      1.71062  1_564   S
    O77    C2        1.23789      .   S
    O85    C57       1.24673      .   S
    O85    Zn139     1.95292  1_554   S
    O75    C1        1.22992      .   S
    O121   C57       1.20984      .   S
    C57    C35       1.50512      .   S
    C13    O98       1.22992      .   S
    C2     O112      1.23954      .   S
    C1     O24       1.22351      .   S
    C54    O118      1.20984      .   S
    C54    O82       1.24673      .   S
    O98    Zn141     1.97660      .   S
    O82    Zn136     1.95266      .   S
    O112   Zn141     1.94735      .   S
    C35    C46       1.34562      .   S
    C35    S128      1.71002      .   S
    H69    C46       0.92996      .   S
    O24    Zn141     1.93659      .   S
    C46    C41       1.34179  1_455   S
    Zn141  O87       1.95292      .   S
    S128   C30       1.70996  1_455   S
    Zn136  O104      1.93665      .   S
    Zn136  O107      1.94743  1_565   S
    Zn136  O93       1.97670      .   S
    C41    H64       0.92996      .   S
    C41    C30       1.34562      .   S
    O104   C12       1.22328      .   S
    C30    C52       1.50512      .   S
    O107   C20       1.23789      .   S
    O87    C59       1.24673      .   S
    O93    C0        1.22992      .   S
    O123   C59       1.20984      .   S
    C59    C37       1.50512      .   S
    C12    O97       1.22992      .   S
    C20    O111      1.23931      .   S
    C0     O23       1.22328      .   S
    C52    O116      1.20984      .   S
    C52    O80       1.24673      .   S
    O97    Zn140     1.97670      .   S
    O80    Zn134     1.95292      .   S
    O111   Zn140     1.94743  1_545   S
    C37    C48       1.34562      .   S
    C37    S129      1.70996      .   S
    H71    C48       0.92996      .   S
    O23    Zn140     1.93665      .   S
    C48    C42       1.34179      .   S
    Zn140  O86       1.95266      .   S
    S129   C31       1.71002      .   S
    Zn134  O102      1.93659      .   S
    Zn134  O28       1.94735  1_655   S
    Zn134  O91       1.97660      .   S
    C42    H65       0.92996      .   S
    C42    C31       1.34562      .   S
    O102   C14       1.22351      .   S
    C31    C53       1.50512      .   S
    O28    C18       1.23789      .   S
    O86    C58       1.24673      .   S
    O91    C7        1.22992      .   S
    O122   C58       1.20984      .   S
    C58    C36       1.50512      .   S
    C14    O99       1.22992      .   S
    C18    O113      1.23954      .   S
    C7     O25       1.22351      .   S
    C53    O117      1.20984      .   S
    C53    O81       1.24673      .   S
    O99    Zn142     1.97660      .   S
    O81    Zn135     1.95292      .   S
    O113   Zn142     1.94735  1_455   S
    C36    C47       1.34562      .   S
    C36    S127      1.70954  1_565   S
    H70    C47       0.92996      .   S
    O25    Zn142     1.93659      .   S
    C47    C40       1.34203  1_565   S
    Zn142  O88       1.95292      .   S
    S127   C29       1.71062      .   S
    Zn135  O103      1.93659      .   S
    Zn135  O106      1.94735      .   S
    Zn135  O92       1.97660      .   S
    C40    H63       0.92996      .   S
    C40    C29       1.34562      .   S
    O103   C10       1.22351      .   S
    C29    C51       1.50512      .   S
    O106   C19       1.23789      .   S
    O88    C60       1.24673      .   S
    O92    C8        1.22992      .   S
    O124   C60       1.20984      .   S
    C60    C38       1.50512      .   S
    C10    O95       1.22992      .   S
    C19    O109      1.23954      .   S
    C8     O21       1.22351      .   S
    C51    O115      1.20984      .   S
    C51    O79       1.24673      .   S
    O95    Zn138     1.97660      .   S
    O79    Zn133     1.95266      .   S
    O109   Zn138     1.94735      .   S
    C38    C49       1.34562      .   S
    C38    S131      1.71002  1_655   S
    H72    C49       0.92996      .   S
    O21    Zn138     1.93659      .   S
    C49    C44       1.34179  1_655   S
    Zn138  O84       1.95292      .   S
    S131   C33       1.70996      .   S
    Zn133  O101      1.93665      .   S
    Zn133  O27       1.94743  1_545   S
    Zn133  O90       1.97670      .   S
    C44    H67       0.92996      .   S
    C44    C33       1.34562      .   S
    O101   C15       1.22328      .   S
    C33    C55       1.50512      .   S
    O27    C17       1.23789      .   S
    O84    C56       1.24673      .   S
    O90    C6        1.22992      .   S
    O120   C56       1.20984      .   S
    C56    C34       1.50512      .   S
    C15    O100      1.22992      .   S
    C17    O114      1.23931      .   S
    C6     O26       1.22328      .   S
    C55    O119      1.20984      .   S
    C55    O83       1.24673      .   S
    O100   Zn143     1.97670      .   S
    O83    Zn137     1.95292      .   S
    O114   Zn143     1.94743  1_565   S
    C34    C45       1.34562      .   S
    C34    S126      1.70996      .   S
    H68    C45       0.92996      .   S
    O26    Zn143     1.93665      .   S
    C45    C4        1.34179      .   S
    Zn143  O89       1.95266      .   S
    S126   C3        1.71002      .   S
    Zn137  O105      1.93659      .   S
    Zn137  O108      1.94735  1_455   S
    Zn137  O94       1.97660      .   S
    C4     H62       0.92996      .   S
    C4     C3        1.34562      .   S
    O105   C11       1.22351      .   S
    C3     C5        1.50512      .   S
    O108   C16       1.23789      .   S
    O89    C61       1.24673      .   S
    O94    C9        1.22992      .   S
    O125   C61       1.20984      .   S
    C61    C39       1.50512      .   S
    C11    O96       1.22992      .   S
    C16    O110      1.23954      .   S
    C9     O22       1.22351      .   S
    C5     O78       1.20984      .   S
    C5     O74       1.24673      .   S
    O96    Zn139     1.97660      .   S
    O110   Zn139     1.94735  1_655   S
    C39    C50       1.34562      .   S
    C39    S130      1.70954      .   S
    H73    C50       0.92996      .   S
    O22    Zn139     1.93659      .   S
