# CIF file generated by openbabel 2.4.90, see http://openbabel.sf.net
data_I
_chemical_name_common ''
_cell_length_a 24.057
_cell_length_b 24.057
_cell_length_c 26.996
_cell_angle_alpha 90
_cell_angle_beta 90
_cell_angle_gamma 120
_space_group_name_H-M_alt 'P 1'
_space_group_name_Hall 'P 1'
loop_
    _symmetry_equiv_pos_as_xyz
    x,y,z
loop_
    _atom_site_label
    _atom_site_type_symbol
    _atom_site_fract_x
    _atom_site_fract_y
    _atom_site_fract_z
    _atom_site_occupancy
    C0      C    0.34584   0.85814   0.25773   1.000
    C1      C    0.48770   0.34584   0.09106   1.000
    C2      C    0.48159   0.51841   0.08330   1.000
    C3      C    0.53379   0.48932   0.92589   1.000
    C4      C    0.65416   0.14186   0.75773   1.000
    C5      C    0.85814   0.51230   0.42439   1.000
    C6      C    0.51230   0.65416   0.59106   1.000
    C7      C    0.14186   0.48770   0.92439   1.000
    C8      C    0.34584   0.48770   0.57561   1.000
    C9      C    0.14186   0.65416   0.90894   1.000
    C10     C    0.51230   0.85814   0.24227   1.000
    C11     C    0.65416   0.51230   0.07561   1.000
    C12     C    0.85814   0.34584   0.40894   1.000
    C13     C    0.48770   0.14186   0.74227   1.000
    C14     C    0.96318   0.48159   0.91663   1.000
    C15     C    0.48159   0.96318   0.74997   1.000
    C16     C    0.03682   0.51841   0.41663   1.000
    C17     C    0.51841   0.48159   0.58330   1.000
    C18     C    0.51841   0.03682   0.24997   1.000
    C19     C    0.51068   0.04447   0.59256   1.000
    C20     C    0.95553   0.46621   0.25922   1.000
    C21     C    0.46621   0.51068   0.42589   1.000
    C22     C    0.48932   0.95553   0.09256   1.000
    C23     C    0.04447   0.53379   0.75922   1.000
    C24     C    0.48932   0.53379   0.74078   1.000
    C25     C    0.04447   0.51068   0.07411   1.000
    C26     C    0.46621   0.95553   0.40744   1.000
    C27     C    0.51068   0.46621   0.24078   1.000
    C28     C    0.95553   0.48932   0.57411   1.000
    C29     C    0.53379   0.04447   0.90744   1.000
