# CIF file generated by openbabel 2.4.90, see http://openbabel.sf.net
data_I
_chemical_name_common ''
_cell_length_a 24.057
_cell_length_b 24.057
_cell_length_c 26.996
_cell_angle_alpha 90
_cell_angle_beta 90
_cell_angle_gamma 120
_space_group_name_H-M_alt 'P 1'
_space_group_name_Hall 'P 1'
loop_
    _symmetry_equiv_pos_as_xyz
    x,y,z
loop_
    _atom_site_label
    _atom_site_type_symbol
    _atom_site_fract_x
    _atom_site_fract_y
    _atom_site_fract_z
    _atom_site_occupancy
    N0      N    0.00000   0.53721   0.16667   1.000
    N1      N    0.00000   0.46279   0.66667   1.000
    N2      N    0.53721   0.00000   0.50000   1.000
    N3      N    0.46279   0.46279   0.83333   1.000
    N4      N    0.46279   0.00000   1.00000   1.000
    N5      N    0.53721   0.53721   0.33333   1.000
    Zr6     Zr   0.46470   0.53530   0.58333   1.000
    O7      O    0.46961   0.51320   0.69152   1.000
    O8      O    0.48680   0.53039   0.47515   1.000
    Zr9     Zr   0.53530   0.46470   0.08333   1.000
    O10     O    0.53039   0.48680   0.19152   1.000
    O11     O    0.51320   0.46961   0.97515   1.000
    Zr12    Zr   0.07060   0.53530   0.91666   1.000
    O13     O    0.04359   0.51320   0.80848   1.000
    O14     O    0.04359   0.53039   0.02485   1.000
    Zr15    Zr   0.53530   0.07060   0.75000   1.000
    O16     O    0.53039   0.04359   0.64181   1.000
    O17     O    0.51320   0.04359   0.85818   1.000
    Zr18    Zr   0.46470   0.92940   0.25000   1.000
    O19     O    0.48680   0.95641   0.35818   1.000
    O20     O    0.46961   0.95641   0.14181   1.000
    Zr21    Zr   0.92940   0.46470   0.41666   1.000
    O22     O    0.95641   0.48680   0.30848   1.000
    O23     O    0.95641   0.46961   0.52485   1.000
loop_
    _geom_bond_atom_site_label_1
    _geom_bond_atom_site_label_2
    _geom_bond_distance
    _geom_bond_site_symmetry_2
    _ccdc_geom_bond_type
    Zr6    O7        2.98157      .   S
    N3     O7        3.99439      .   S
    Zr6    O8        2.98152      .   S
    N5     O8        3.99435      .   S
    Zr9    O10       2.98157      .   S
    N5     O10       3.99439      .   S
    Zr9    O11       2.98152  1_554   S
    N3     O11       3.99435      .   S
    Zr12   O13       2.98151      .   S
    N1     O13       3.99434      .   S
    Zr12   O14       2.98157  1_556   S
    N0     O14       3.99440      .   S
    Zr15   O16       2.98151      .   S
    N2     O16       3.99446      .   S
    Zr15   O17       2.98150      .   S
    N4     O17       3.99434      .   S
    Zr18   O19       2.98150      .   S
    N2     O19       3.99434  1_545   S
    Zr18   O20       2.98151      .   S
    N4     O20       3.99446  1_546   S
    Zr21   O22       2.98151      .   S
    N0     O22       3.99434  1_455   S
    Zr21   O23       2.98157      .   S
    N1     O23       3.99440  1_455   S
