# CIF file generated by openbabel 2.4.90, see http://openbabel.sf.net
data_I
_chemical_name_common ''
_cell_length_a 24.057
_cell_length_b 24.057
_cell_length_c 26.996
_cell_angle_alpha 90
_cell_angle_beta 90
_cell_angle_gamma 120
_space_group_name_H-M_alt 'P 1'
_space_group_name_Hall 'P 1'
loop_
    _symmetry_equiv_pos_as_xyz
    x,y,z
loop_
    _atom_site_label
    _atom_site_type_symbol
    _atom_site_fract_x
    _atom_site_fract_y
    _atom_site_fract_z
    _atom_site_occupancy
    Zr0     Zr   0.48770   0.34584   0.09106   1.000
    Zr1     Zr   0.48159   0.51841   0.08330   1.000
    Zr2     Zr   0.53379   0.48932   0.92589   1.000
    Zr3     Zr   0.65416   0.14186   0.75773   1.000
    Zr4     Zr   0.85814   0.51230   0.42439   1.000
    Zr5     Zr   0.51230   0.65416   0.59106   1.000
    Zr6     Zr   0.34584   0.85814   0.25773   1.000
    Zr7     Zr   0.14186   0.48770   0.92439   1.000
    Zr8     Zr   0.34584   0.48770   0.57561   1.000
    Zr9     Zr   0.14186   0.65416   0.90894   1.000
    Zr10    Zr   0.51230   0.85814   0.24227   1.000
    Zr11    Zr   0.65416   0.51230   0.07561   1.000
    Zr12    Zr   0.85814   0.34584   0.40894   1.000
    Zr13    Zr   0.48770   0.14186   0.74227   1.000
    Zr14    Zr   0.48159   0.96318   0.74997   1.000
    Zr15    Zr   0.03682   0.51841   0.41663   1.000
    Zr16    Zr   0.51841   0.48159   0.58330   1.000
    Zr17    Zr   0.51841   0.03682   0.24997   1.000
    Zr18    Zr   0.96318   0.48159   0.91663   1.000
    Zr19    Zr   0.51068   0.04447   0.59256   1.000
    Zr20    Zr   0.95553   0.46621   0.25922   1.000
    Zr21    Zr   0.46621   0.51068   0.42589   1.000
    Zr22    Zr   0.48932   0.95553   0.09256   1.000
    Zr23    Zr   0.04447   0.53379   0.75922   1.000
    Zr24    Zr   0.48932   0.53379   0.74078   1.000
    Zr25    Zr   0.04447   0.51068   0.07411   1.000
    Zr26    Zr   0.46621   0.95553   0.40744   1.000
    Zr27    Zr   0.51068   0.46621   0.24078   1.000
    Zr28    Zr   0.95553   0.48932   0.57411   1.000
    Zr29    Zr   0.53379   0.04447   0.90744   1.000
    Zr30    Zr   0.51184   0.43904   0.95077   1.000
    Zr31    Zr   0.49334   0.36941   0.04965   1.000
    Zr32    Zr   0.62481   0.49346   0.03653   1.000
    Zr33    Zr   0.48471   0.49520   0.04318   1.000
    Zr34    Zr   0.57690   0.54038   0.94039   1.000
    Zr35    Zr   0.56096   0.07280   0.61744   1.000
    Zr36    Zr   0.92720   0.48816   0.28410   1.000
    Zr37    Zr   0.48816   0.56096   0.45077   1.000
    Zr38    Zr   0.43904   0.92720   0.11744   1.000
    Zr39    Zr   0.07280   0.51184   0.78410   1.000
    Zr40    Zr   0.43904   0.51184   0.71590   1.000
    Zr41    Zr   0.07280   0.56096   0.04923   1.000
    Zr42    Zr   0.48816   0.92720   0.38256   1.000
    Zr43    Zr   0.56096   0.48816   0.21590   1.000
    Zr44    Zr   0.92720   0.43904   0.54923   1.000
    Zr45    Zr   0.51184   0.07280   0.88256   1.000
    Zr46    Zr   0.63059   0.12393   0.71632   1.000
    Zr47    Zr   0.87607   0.50666   0.38298   1.000
    Zr48    Zr   0.50666   0.63059   0.54965   1.000
    Zr49    Zr   0.36941   0.87607   0.21632   1.000
    Zr50    Zr   0.12393   0.49334   0.88298   1.000
    Zr51    Zr   0.36941   0.49334   0.61702   1.000
    Zr52    Zr   0.12393   0.63059   0.95035   1.000
    Zr53    Zr   0.50666   0.87607   0.28368   1.000
    Zr54    Zr   0.63059   0.50666   0.11702   1.000
    Zr55    Zr   0.87607   0.36941   0.45035   1.000
    Zr56    Zr   0.49334   0.12393   0.78368   1.000
    Zr57    Zr   0.50654   0.13135   0.70320   1.000
    Zr58    Zr   0.86865   0.37519   0.36986   1.000
    Zr59    Zr   0.37519   0.50654   0.53653   1.000
    Zr60    Zr   0.49346   0.86865   0.20320   1.000
    Zr61    Zr   0.13135   0.62481   0.86986   1.000
    Zr62    Zr   0.49346   0.62481   0.63014   1.000
    Zr63    Zr   0.13135   0.50654   0.96347   1.000
    Zr64    Zr   0.37519   0.86865   0.29680   1.000
    Zr65    Zr   0.50654   0.37519   0.13014   1.000
    Zr66    Zr   0.86865   0.49346   0.46347   1.000
    Zr67    Zr   0.62481   0.13135   0.79680   1.000
    Zr68    Zr   0.50480   0.98951   0.70985   1.000
    Zr69    Zr   0.01049   0.51529   0.37651   1.000
    Zr70    Zr   0.51529   0.50480   0.54318   1.000
    Zr71    Zr   0.49520   0.01049   0.20985   1.000
    Zr72    Zr   0.98951   0.48471   0.87651   1.000
    Zr73    Zr   0.49520   0.48471   0.62349   1.000
    Zr74    Zr   0.98951   0.50480   0.95682   1.000
    Zr75    Zr   0.51529   0.01049   0.29015   1.000
    Zr76    Zr   0.50480   0.51529   0.12349   1.000
    Zr77    Zr   0.01049   0.49520   0.45682   1.000
    Zr78    Zr   0.48471   0.98951   0.79015   1.000
    Zr79    Zr   0.45962   0.03652   0.60706   1.000
    Zr80    Zr   0.96348   0.42310   0.27372   1.000
    Zr81    Zr   0.42310   0.45962   0.44039   1.000
    Zr82    Zr   0.54038   0.96348   0.10706   1.000
    Zr83    Zr   0.03652   0.57690   0.77372   1.000
    Zr84    Zr   0.54038   0.57690   0.72628   1.000
    Zr85    Zr   0.03652   0.45962   0.05961   1.000
    Zr86    Zr   0.42310   0.96348   0.39294   1.000
    Zr87    Zr   0.45962   0.42310   0.22628   1.000
    Zr88    Zr   0.96348   0.54038   0.55961   1.000
    Zr89    Zr   0.57690   0.03652   0.89294   1.000
    Zr90    Zr   0.53463   0.45653   0.02073   1.000
    Zr91    Zr   0.54347   0.07810   0.68739   1.000
    Zr92    Zr   0.92190   0.46537   0.35406   1.000
    Zr93    Zr   0.46537   0.54347   0.52073   1.000
    Zr94    Zr   0.45653   0.92190   0.18739   1.000
    Zr95    Zr   0.07810   0.53463   0.85406   1.000
    Zr96    Zr   0.45653   0.53463   0.64594   1.000
    Zr97    Zr   0.07810   0.54347   0.97927   1.000
    Zr98    Zr   0.46537   0.92190   0.31261   1.000
    Zr99    Zr   0.54347   0.46537   0.14594   1.000
    Zr100   Zr   0.92190   0.45653   0.47927   1.000
    Zr101   Zr   0.53463   0.07810   0.81261   1.000
    O102    O    0.57972   0.47499   0.02863   1.000
    O103    O    0.50967   0.47586   0.03196   1.000
    O104    O    0.51399   0.41297   0.03519   1.000
    O105    O    0.52324   0.44778   0.98575   1.000
    O106    O    0.63949   0.50288   0.05607   1.000
    O107    O    0.48315   0.50680   0.06324   1.000
    O108    O    0.05863   0.53582   0.06167   1.000
    O109    O    0.07545   0.55221   0.01425   1.000
    O110    O    0.49052   0.35763   0.07036   1.000
    O111    O    0.04049   0.48515   0.06686   1.000
    O112    O    0.64237   0.50948   0.09632   1.000
    O113    O    0.49320   0.51685   0.10340   1.000
    O114    O    0.49712   0.36051   0.11060   1.000
    O115    O    0.51485   0.95950   0.09981   1.000
    O116    O    0.46418   0.94137   0.10500   1.000
    O117    O    0.58703   0.48601   0.13148   1.000
    O118    O    0.44779   0.92455   0.15241   1.000
    O119    O    0.52414   0.49033   0.13472   1.000
    O120    O    0.52500   0.42028   0.13804   1.000
    O121    O    0.55222   0.47676   0.18092   1.000
    O122    O    0.47500   0.89527   0.19530   1.000
    O123    O    0.47587   0.96619   0.19862   1.000
    O124    O    0.41297   0.89898   0.20186   1.000
    O125    O    0.50288   0.86339   0.22274   1.000
    O126    O    0.50681   0.02365   0.22991   1.000
    O127    O    0.53582   0.47718   0.22834   1.000
    O128    O    0.35762   0.86710   0.23703   1.000
    O129    O    0.48515   0.44465   0.23353   1.000
    O130    O    0.50948   0.86710   0.26298   1.000
    O131    O    0.51685   0.02365   0.27006   1.000
    O132    O    0.36051   0.86339   0.27727   1.000
    O133    O    0.95951   0.44465   0.26647   1.000
    O134    O    0.94136   0.47718   0.27166   1.000
    O135    O    0.48601   0.89898   0.29815   1.000
    O136    O    0.92455   0.47676   0.31908   1.000
    O137    O    0.49033   0.96619   0.30138   1.000
    O138    O    0.42028   0.89527   0.30471   1.000
    O139    O    0.47677   0.92455   0.34759   1.000
    O140    O    0.89527   0.42028   0.36196   1.000
    O141    O    0.96620   0.49033   0.36529   1.000
    O142    O    0.89899   0.48601   0.36852   1.000
    O143    O    0.86340   0.36051   0.38940   1.000
    O144    O    0.02366   0.51685   0.39657   1.000
    O145    O    0.47719   0.94137   0.39500   1.000
    O146    O    0.86711   0.50948   0.40369   1.000
    O147    O    0.44466   0.95950   0.40019   1.000
    O148    O    0.86710   0.35762   0.42965   1.000
    O149    O    0.02366   0.50680   0.43673   1.000
    O150    O    0.86339   0.50288   0.44393   1.000
    O151    O    0.44466   0.48515   0.43314   1.000
    O152    O    0.47719   0.53582   0.43833   1.000
    O153    O    0.89899   0.41297   0.46481   1.000
    O154    O    0.47677   0.55221   0.48575   1.000
    O155    O    0.96620   0.47586   0.46805   1.000
    O156    O    0.89527   0.47500   0.47137   1.000
    O157    O    0.92455   0.44778   0.51425   1.000
    O158    O    0.42028   0.52500   0.52863   1.000
    O159    O    0.49033   0.52413   0.53196   1.000
    O160    O    0.48602   0.58703   0.53519   1.000
    O161    O    0.36052   0.49712   0.55607   1.000
    O162    O    0.51685   0.49319   0.56324   1.000
    O163    O    0.94136   0.46418   0.56167   1.000
    O164    O    0.50948   0.64237   0.57036   1.000
    O165    O    0.95951   0.51485   0.56686   1.000
    O166    O    0.35763   0.49052   0.59632   1.000
    O167    O    0.50680   0.48315   0.60340   1.000
    O168    O    0.50288   0.63948   0.61060   1.000
    O169    O    0.48515   0.04049   0.59981   1.000
    O170    O    0.53582   0.05863   0.60500   1.000
    O171    O    0.41297   0.51398   0.63148   1.000
    O172    O    0.55222   0.07545   0.65242   1.000
    O173    O    0.47586   0.50967   0.63472   1.000
    O174    O    0.47500   0.57972   0.63804   1.000
    O175    O    0.44778   0.52323   0.68092   1.000
    O176    O    0.52501   0.10472   0.69529   1.000
    O177    O    0.52414   0.03381   0.69862   1.000
    O178    O    0.58703   0.10101   0.70185   1.000
    O179    O    0.49712   0.13660   0.72274   1.000
    O180    O    0.49320   0.97635   0.72991   1.000
    O181    O    0.46418   0.52281   0.72834   1.000
    O182    O    0.64237   0.13289   0.73703   1.000
    O183    O    0.51485   0.55534   0.73353   1.000
    O184    O    0.49052   0.13289   0.76298   1.000
    O185    O    0.48315   0.97635   0.77006   1.000
    O186    O    0.63949   0.13660   0.77727   1.000
    O187    O    0.04049   0.55534   0.76647   1.000
    O188    O    0.05864   0.52281   0.77166   1.000
    O189    O    0.51399   0.10101   0.79815   1.000
    O190    O    0.07545   0.52323   0.81908   1.000
    O191    O    0.50967   0.03381   0.80138   1.000
    O192    O    0.57972   0.10472   0.80471   1.000
    O193    O    0.52324   0.07545   0.84759   1.000
    O194    O    0.10472   0.57972   0.86196   1.000
    O195    O    0.03381   0.50967   0.86529   1.000
    O196    O    0.10102   0.51398   0.86852   1.000
    O197    O    0.13661   0.63948   0.88940   1.000
    O198    O    0.97634   0.48315   0.89657   1.000
    O199    O    0.52281   0.05863   0.89500   1.000
    O200    O    0.13289   0.49052   0.90369   1.000
    O201    O    0.55535   0.04049   0.90019   1.000
    O202    O    0.13289   0.64237   0.92965   1.000
    O203    O    0.97635   0.49319   0.93672   1.000
    O204    O    0.13661   0.49712   0.94393   1.000
    O205    O    0.55535   0.51485   0.93314   1.000
    O206    O    0.52282   0.46418   0.93833   1.000
    O207    O    0.10102   0.58703   0.96481   1.000
    O208    O    0.03380   0.52414   0.96805   1.000
    O209    O    0.10473   0.52501   0.97137   1.000
    N210    N    0.79499   0.20501   0.58332   1.000
    O211    O    0.20650   0.41716   0.57207   1.000
    O212    O    0.58816   0.41184   0.58331   1.000
    O213    O    0.58284   0.79350   0.59460   1.000
    N214    N    0.41002   0.20501   0.91665   1.000
    O215    O    0.21066   0.79350   0.90540   1.000
    O216    O    0.82368   0.41184   0.91664   1.000
    O217    O    0.21066   0.41716   0.92793   1.000
    N218    N    0.20501   0.79499   0.08332   1.000
    O219    O    0.79350   0.58284   0.07207   1.000
    O220    O    0.41184   0.58816   0.08331   1.000
    O221    O    0.41716   0.20650   0.09460   1.000
    N222    N    0.20501   0.41002   0.74999   1.000
    O223    O    0.41184   0.82368   0.74998   1.000
    O224    O    0.41716   0.21066   0.73873   1.000
    O225    O    0.79350   0.21066   0.76127   1.000
    N226    N    0.58998   0.79499   0.41665   1.000
    O227    O    0.78934   0.20650   0.40540   1.000
    O228    O    0.17632   0.58816   0.41664   1.000
    O229    O    0.78934   0.58284   0.42793   1.000
    N230    N    0.00000   0.53721   0.16667   1.000
    O231    O    0.98342   0.50890   0.20029   1.000
    O232    O    0.01657   0.52548   0.13304   1.000
    N233    N    0.00000   0.46279   0.66667   1.000
    O234    O    0.98342   0.47452   0.63304   1.000
    O235    O    0.01657   0.49110   0.70029   1.000
    N236    N    0.79499   0.58998   0.24999   1.000
    O237    O    0.58284   0.78934   0.23873   1.000
    O238    O    0.58816   0.17632   0.24998   1.000
    O239    O    0.20650   0.78934   0.26127   1.000
    N240    N    0.53721   0.00000   0.50000   1.000
    O241    O    0.52548   0.01657   0.53363   1.000
    O242    O    0.50890   0.98342   0.46637   1.000
    N243    N    0.46279   0.46279   0.83333   1.000
    O244    O    0.47452   0.49110   0.79971   1.000
    O245    O    0.49110   0.47452   0.86696   1.000
    N246    N    0.46279   0.00000   1.00000   1.000
    O247    O    0.49110   0.01657   0.96637   1.000
    O248    O    0.47452   0.98342   0.03363   1.000
    N249    N    0.53721   0.53721   0.33333   1.000
    O250    O    0.52548   0.50890   0.29971   1.000
    O251    O    0.50890   0.52548   0.36696   1.000
loop_
    _geom_bond_atom_site_label_1
    _geom_bond_atom_site_label_2
    _geom_bond_distance
    _geom_bond_site_symmetry_2
    _ccdc_geom_bond_type
    Zr90   O102      0.96830      .   S
    Zr32   O102      0.96830      .   S
    Zr90   O103      0.97367      .   S
    Zr33   O103      0.97367      .   S
    Zr90   O104      0.98830      .   S
    Zr31   O104      0.98830      .   S
    Zr90   O105      0.97646  1_554   S
    Zr30   O105      0.97646      .   S
    Zr32   O106      0.61175      .   S
    Zr11   O106      0.61175      .   S
    Zr33   O107      0.61895      .   S
    Zr1    O107      0.61895      .   S
    Zr41   O108      0.62337      .   S
    Zr25   O108      0.62337      .   S
    Zr41   O109      0.97646      .   S
    Zr97   O109      0.97646  1_556   S
    Zr31   O110      0.61496      .   S
    Zr0    O110      0.61496      .   S
    Zr85   O111      0.60492      .   S
    Zr25   O111      0.60492      .   S
    Zr11   O112      0.61496      .   S
    Zr54   O112      0.61496      .   S
    Zr1    O113      0.61977      .   S
    Zr76   O113      0.61977      .   S
    Zr0    O114      0.61175      .   S
    Zr65   O114      0.61175      .   S
    Zr22   O115      0.60492      .   S
    Zr82   O115      0.60492      .   S
    Zr22   O116      0.62337      .   S
    Zr38   O116      0.62337      .   S
    Zr54   O117      0.98830      .   S
    Zr99   O117      0.98830      .   S
    Zr38   O118      0.97633      .   S
    Zr94   O118      0.97633      .   S
    Zr76   O119      0.97367      .   S
    Zr99   O119      0.97367      .   S
    Zr65   O120      0.96830      .   S
    Zr99   O120      0.96830      .   S
    Zr99   O121      0.97646      .   S
    Zr43   O121      0.97646      .   S
    Zr94   O122      0.96833      .   S
    Zr60   O122      0.96833      .   S
    Zr94   O123      0.97372      .   S
    Zr71   O123      0.97372  1_545   S
    Zr94   O124      0.98835      .   S
    Zr49   O124      0.98835      .   S
    Zr60   O125      0.61164      .   S
    Zr10   O125      0.61164      .   S
    Zr71   O126      0.61895      .   S
    Zr17   O126      0.61895      .   S
    Zr43   O127      0.62337      .   S
    Zr27   O127      0.62337      .   S
    Zr49   O128      0.61496      .   S
    Zr6    O128      0.61496      .   S
    Zr87   O129      0.60492      .   S
    Zr27   O129      0.60492      .   S
    Zr10   O130      0.61496      .   S
    Zr53   O130      0.61496      .   S
    Zr17   O131      0.61965      .   S
    Zr75   O131      0.61965      .   S
    Zr6    O132      0.61164      .   S
    Zr64   O132      0.61164      .   S
    Zr20   O133      0.60492      .   S
    Zr80   O133      0.60492      .   S
    Zr20   O134      0.62337      .   S
    Zr36   O134      0.62337      .   S
    Zr53   O135      0.98835      .   S
    Zr98   O135      0.98835      .   S
    Zr36   O136      0.97646      .   S
    Zr92   O136      0.97646      .   S
    Zr75   O137      0.97372  1_545   S
    Zr98   O137      0.97372      .   S
    Zr64   O138      0.96833      .   S
    Zr98   O138      0.96833      .   S
    Zr98   O139      0.97633      .   S
    Zr42   O139      0.97633      .   S
    Zr92   O140      0.96830      .   S
    Zr58   O140      0.96830      .   S
    Zr92   O141      0.97367      .   S
    Zr69   O141      0.97367  1_455   S
    Zr92   O142      0.98830      .   S
    Zr47   O142      0.98830      .   S
    Zr58   O143      0.61175      .   S
    Zr12   O143      0.61175      .   S
    Zr69   O144      0.61895      .   S
    Zr15   O144      0.61895      .   S
    Zr42   O145      0.62337      .   S
    Zr26   O145      0.62337      .   S
    Zr47   O146      0.61496      .   S
    Zr4    O146      0.61496      .   S
    Zr86   O147      0.60492      .   S
    Zr26   O147      0.60492      .   S
    Zr12   O148      0.61496      .   S
    Zr55   O148      0.61496      .   S
    Zr15   O149      0.61977      .   S
    Zr77   O149      0.61977      .   S
    Zr4    O150      0.61175      .   S
    Zr66   O150      0.61175      .   S
    Zr21   O151      0.60492      .   S
    Zr81   O151      0.60492      .   S
    Zr21   O152      0.62337      .   S
    Zr37   O152      0.62337      .   S
    Zr55   O153      0.98830      .   S
    Zr100  O153      0.98830      .   S
    Zr37   O154      0.97646      .   S
    Zr93   O154      0.97646      .   S
    Zr77   O155      0.97367  1_455   S
    Zr100  O155      0.97367      .   S
    Zr66   O156      0.96830      .   S
    Zr100  O156      0.96830      .   S
    Zr100  O157      0.97646      .   S
    Zr44   O157      0.97646      .   S
    Zr93   O158      0.96830      .   S
    Zr59   O158      0.96830      .   S
    Zr93   O159      0.97367      .   S
    Zr70   O159      0.97367      .   S
    Zr93   O160      0.98830      .   S
    Zr48   O160      0.98830      .   S
    Zr59   O161      0.61175      .   S
    Zr8    O161      0.61175      .   S
    Zr70   O162      0.61895      .   S
    Zr16   O162      0.61895      .   S
    Zr44   O163      0.62337      .   S
    Zr28   O163      0.62337      .   S
    Zr48   O164      0.61496      .   S
    Zr5    O164      0.61496      .   S
    Zr88   O165      0.60492      .   S
    Zr28   O165      0.60492      .   S
    Zr8    O166      0.61496      .   S
    Zr51   O166      0.61496      .   S
    Zr16   O167      0.61977      .   S
    Zr73   O167      0.61977      .   S
    Zr5    O168      0.61175      .   S
    Zr62   O168      0.61175      .   S
    Zr19   O169      0.60492      .   S
    Zr79   O169      0.60492      .   S
    Zr19   O170      0.62337      .   S
    Zr35   O170      0.62337      .   S
    Zr51   O171      0.98830      .   S
    Zr96   O171      0.98830      .   S
    Zr35   O172      0.97633      .   S
    Zr91   O172      0.97633      .   S
    Zr73   O173      0.97367      .   S
    Zr96   O173      0.97367      .   S
    Zr62   O174      0.96830      .   S
    Zr96   O174      0.96830      .   S
    Zr96   O175      0.97646      .   S
    Zr40   O175      0.97646      .   S
    Zr91   O176      0.96833      .   S
    Zr57   O176      0.96833      .   S
    Zr91   O177      0.97372      .   S
    Zr68   O177      0.97372  1_565   S
    Zr91   O178      0.98835      .   S
    Zr46   O178      0.98835      .   S
    Zr57   O179      0.61164      .   S
    Zr13   O179      0.61164      .   S
    Zr68   O180      0.61895      .   S
    Zr14   O180      0.61895      .   S
    Zr40   O181      0.62337      .   S
    Zr24   O181      0.62337      .   S
    Zr46   O182      0.61496      .   S
    Zr3    O182      0.61496      .   S
    Zr84   O183      0.60492      .   S
    Zr24   O183      0.60492      .   S
    Zr13   O184      0.61496      .   S
    Zr56   O184      0.61496      .   S
    Zr14   O185      0.61965      .   S
    Zr78   O185      0.61965      .   S
    Zr3    O186      0.61164      .   S
    Zr67   O186      0.61164      .   S
    Zr23   O187      0.60492      .   S
    Zr83   O187      0.60492      .   S
    Zr23   O188      0.62337      .   S
    Zr39   O188      0.62337      .   S
    Zr56   O189      0.98835      .   S
    Zr101  O189      0.98835      .   S
    Zr39   O190      0.97646      .   S
    Zr95   O190      0.97646      .   S
    Zr78   O191      0.97372  1_565   S
    Zr101  O191      0.97372      .   S
    Zr67   O192      0.96833      .   S
    Zr101  O192      0.96833      .   S
    Zr101  O193      0.97633      .   S
    Zr45   O193      0.97633      .   S
    Zr95   O194      0.96830      .   S
    Zr61   O194      0.96830      .   S
    Zr95   O195      0.97367      .   S
    Zr72   O195      0.97367  1_655   S
    Zr95   O196      0.98830      .   S
    Zr50   O196      0.98830      .   S
    Zr61   O197      0.61175      .   S
    Zr9    O197      0.61175      .   S
    Zr72   O198      0.61895      .   S
    Zr18   O198      0.61895      .   S
    Zr45   O199      0.62337      .   S
    Zr29   O199      0.62337      .   S
    Zr50   O200      0.61496      .   S
    Zr7    O200      0.61496      .   S
    Zr89   O201      0.60492      .   S
    Zr29   O201      0.60492      .   S
    Zr9    O202      0.61496      .   S
    Zr52   O202      0.61496      .   S
    Zr18   O203      0.61977      .   S
    Zr74   O203      0.61977      .   S
    Zr7    O204      0.61175      .   S
    Zr63   O204      0.61175      .   S
    Zr2    O205      0.60492      .   S
    Zr34   O205      0.60492      .   S
    Zr2    O206      0.62337      .   S
    Zr30   O206      0.62337      .   S
    Zr52   O207      0.98830      .   S
    Zr97   O207      0.98830      .   S
    Zr74   O208      0.97367  1_655   S
    Zr97   O208      0.97367      .   S
    Zr63   O209      0.96830      .   S
    Zr97   O209      0.96830      .   S
    N210   O211      8.58014  1_655   S
    Zr8    O211      2.90464      .   S
    N210   O212      8.61815      .   S
    Zr16   O212      2.90641      .   S
    N210   O213      8.58017  1_545   S
    Zr5    O213      2.90464      .   S
    N214   O215      8.58014  1_545   S
    Zr9    O215      2.90464      .   S
    N214   O216      8.61815      .   S
    Zr18   O216      2.90641      .   S
    N214   O217      8.58017      .   S
    Zr7    O217      2.90464      .   S
    N218   O219      8.58014  1_455   S
    Zr11   O219      2.90464      .   S
    N218   O220      8.61815      .   S
    Zr1    O220      2.90641      .   S
    N218   O221      8.58017  1_565   S
    Zr0    O221      2.90464      .   S
    N222   O223      8.61815      .   S
    Zr14   O223      2.90641      .   S
    N222   O224      8.58015      .   S
    Zr13   O224      2.90464      .   S
    N222   O225      8.58017  1_455   S
    Zr3    O225      2.90464      .   S
    N226   O227      8.58014  1_565   S
    Zr12   O227      2.90464      .   S
    N226   O228      8.61815      .   S
    Zr15   O228      2.90641      .   S
    N226   O229      8.58017      .   S
    Zr4    O229      2.90464      .   S
    N230   O231      1.08406  1_455   S
    Zr20   O231      1.82943      .   S
    N230   O232      1.08406      .   S
    Zr25   O232      1.82943      .   S
    N233   O234      1.08406  1_455   S
    Zr28   O234      1.82943      .   S
    N233   O235      1.08406      .   S
    Zr23   O235      1.82943      .   S
    N236   O237      8.58015      .   S
    Zr10   O237      2.90464      .   S
    N236   O238      8.61815      .   S
    Zr17   O238      2.90641      .   S
    N236   O239      8.58017  1_655   S
    Zr6    O239      2.90464      .   S
    N240   O241      1.08416      .   S
    Zr19   O241      1.82954      .   S
    N240   O242      1.08407  1_545   S
    Zr26   O242      1.82944      .   S
    N243   O244      1.08406      .   S
    Zr24   O244      1.82943      .   S
    N243   O245      1.08406      .   S
    Zr2    O245      1.82943      .   S
    N246   O247      1.08407      .   S
    Zr29   O247      1.82944      .   S
    N246   O248      1.08416  1_546   S
    Zr22   O248      1.82954      .   S
    N249   O250      1.08406      .   S
    Zr27   O250      1.82943      .   S
    N249   O251      1.08406      .   S
    Zr21   O251      1.82943      .   S
