# CIF file generated by openbabel 2.4.90, see http://openbabel.sf.net
data_I
_chemical_name_common ''
_cell_length_a 24.057
_cell_length_b 24.057
_cell_length_c 26.996
_cell_angle_alpha 90
_cell_angle_beta 90
_cell_angle_gamma 120
_space_group_name_H-M_alt 'P 1'
_space_group_name_Hall 'P 1'
loop_
    _symmetry_equiv_pos_as_xyz
    x,y,z
loop_
    _atom_site_label
    _atom_site_type_symbol
    _atom_site_fract_x
    _atom_site_fract_y
    _atom_site_fract_z
    _atom_site_occupancy
    N0      N    0.79499   0.20501   0.58332   1.000
    N1      N    0.41002   0.20501   0.91665   1.000
    N2      N    0.20501   0.79499   0.08332   1.000
    N3      N    0.20501   0.41002   0.74999   1.000
    N4      N    0.58998   0.79499   0.41665   1.000
    N5      N    0.00000   0.53721   0.16667   1.000
    N6      N    0.00000   0.46279   0.66667   1.000
    N7      N    0.79499   0.58998   0.24999   1.000
    N8      N    0.53721   0.00000   0.50000   1.000
    N9      N    0.46279   0.46279   0.83333   1.000
    N10     N    0.46279   0.00000   1.00000   1.000
    N11     N    0.53721   0.53721   0.33333   1.000
    Zr12    Zr   0.46470   0.53530   0.58333   1.000
    O13     O    0.46961   0.51320   0.69152   1.000
    O14     O    0.48680   0.53039   0.47515   1.000
    O15     O    0.52643   0.47357   0.58332   1.000
    O16     O    0.52377   0.66440   0.58897   1.000
    O17     O    0.33560   0.47623   0.57770   1.000
    Zr18    Zr   0.53530   0.46470   0.08333   1.000
    O19     O    0.53039   0.48680   0.19152   1.000
    O20     O    0.51320   0.46961   0.97515   1.000
    O21     O    0.66440   0.52377   0.07770   1.000
    O22     O    0.47357   0.52643   0.08332   1.000
    O23     O    0.47623   0.33560   0.08897   1.000
    Zr24    Zr   0.07060   0.53530   0.91666   1.000
    O25     O    0.04359   0.51320   0.80848   1.000
    O26     O    0.94714   0.47357   0.91665   1.000
    O27     O    0.04359   0.53039   0.02485   1.000
    O28     O    0.14063   0.47623   0.92230   1.000
    O29     O    0.14063   0.66440   0.91103   1.000
    Zr30    Zr   0.53530   0.07060   0.75000   1.000
    O31     O    0.53039   0.04359   0.64181   1.000
    O32     O    0.51320   0.04359   0.85818   1.000
    O33     O    0.66440   0.14063   0.75563   1.000
    O34     O    0.47357   0.94714   0.74999   1.000
    O35     O    0.47623   0.14063   0.74436   1.000
    Zr36    Zr   0.46470   0.92940   0.25000   1.000
    O37     O    0.48680   0.95641   0.35818   1.000
    O38     O    0.52643   0.05286   0.24999   1.000
    O39     O    0.46961   0.95641   0.14181   1.000
    O40     O    0.52377   0.85937   0.24436   1.000
    O41     O    0.33560   0.85937   0.25563   1.000
    Zr42    Zr   0.92940   0.46470   0.41666   1.000
    O43     O    0.05286   0.52643   0.41665   1.000
    O44     O    0.95641   0.48680   0.30848   1.000
    O45     O    0.85937   0.33560   0.41103   1.000
    O46     O    0.85937   0.52377   0.42230   1.000
    O47     O    0.95641   0.46961   0.52485   1.000
loop_
    _geom_bond_atom_site_label_1
    _geom_bond_atom_site_label_2
    _geom_bond_distance
    _geom_bond_site_symmetry_2
    _ccdc_geom_bond_type
    Zr12   O13       2.98157      .   S
    N9     O13       3.99439      .   S
    Zr12   O14       2.98152      .   S
    N11    O14       3.99435      .   S
    Zr12   O15       2.57224      .   S
    N0     O15      11.19039      .   S
    Zr12   O16       2.69716      .   S
    N0     O16      15.38973      .   S
    Zr12   O17       2.69716      .   S
    N0     O17      15.38972      .   S
    Zr18   O19       2.98157      .   S
    N11    O19       3.99439      .   S
    Zr18   O20       2.98152  1_554   S
    N9     O20       3.99435      .   S
    Zr18   O21       2.69716      .   S
    N2     O21      15.38972      .   S
    Zr18   O22       2.57224      .   S
    N2     O22      11.19039      .   S
    Zr18   O23       2.69716      .   S
    N2     O23      15.38973      .   S
    Zr24   O25       2.98151      .   S
    N6     O25       3.99434      .   S
    Zr24   O26       2.57224  1_455   S
    N1     O26      15.41699  1_455   S
    Zr24   O27       2.98157  1_556   S
    N5     O27       3.99440      .   S
    Zr24   O28       2.69716      .   S
    N1     O28      11.26407      .   S
    Zr24   O29       2.69716      .   S
    N1     O29      15.35511      .   S
    Zr30   O31       2.98151      .   S
    N8     O31       3.99446      .   S
    Zr30   O32       2.98150      .   S
    N10    O32       3.99434      .   S
    Zr30   O33       2.69716      .   S
    N3     O33      15.35512      .   S
    Zr30   O34       2.57224  1_545   S
    N3     O34      15.41699  1_545   S
    Zr30   O35       2.69716      .   S
    N3     O35      11.26407      .   S
    Zr36   O37       2.98150      .   S
    N8     O37       3.99434  1_545   S
    Zr36   O38       2.57224  1_565   S
    N7     O38      15.41699  1_565   S
    Zr36   O39       2.98151      .   S
    N10    O39       3.99446  1_546   S
    Zr36   O40       2.69716      .   S
    N7     O40      11.26407      .   S
    Zr36   O41       2.69716      .   S
    N7     O41      15.35512      .   S
    Zr42   O43       2.57224  1_655   S
    N4     O43      15.41699  1_655   S
    Zr42   O44       2.98151      .   S
    N5     O44       3.99434  1_455   S
    Zr42   O45       2.69716      .   S
    N4     O45      15.35511      .   S
    Zr42   O46       2.69716      .   S
    N4     O46      11.26407      .   S
    Zr42   O47       2.98157      .   S
    N6     O47       3.99440  1_455   S
