# CIF file generated by openbabel 2.4.90, see http://openbabel.sf.net
data_I
_chemical_name_common ''
_cell_length_a 24.057
_cell_length_b 24.057
_cell_length_c 26.996
_cell_angle_alpha 90
_cell_angle_beta 90
_cell_angle_gamma 120
_space_group_name_H-M_alt 'P 1'
_space_group_name_Hall 'P 1'
loop_
    _symmetry_equiv_pos_as_xyz
    x,y,z
loop_
    _atom_site_label
    _atom_site_type_symbol
    _atom_site_fract_x
    _atom_site_fract_y
    _atom_site_fract_z
    _atom_site_occupancy
    Zr0     Zr   0.53463   0.45653   0.02073   1.000
    Zr1     Zr   0.54347   0.07810   0.68739   1.000
    Zr2     Zr   0.92190   0.46537   0.35406   1.000
    Zr3     Zr   0.46537   0.54347   0.52073   1.000
    Zr4     Zr   0.45653   0.92190   0.18739   1.000
    Zr5     Zr   0.07810   0.53463   0.85406   1.000
    Zr6     Zr   0.45653   0.53463   0.64594   1.000
    Zr7     Zr   0.07810   0.54347   0.97927   1.000
    Zr8     Zr   0.46537   0.92190   0.31261   1.000
    Zr9     Zr   0.54347   0.46537   0.14594   1.000
    Zr10    Zr   0.92190   0.45653   0.47927   1.000
    Zr11    Zr   0.53463   0.07810   0.81261   1.000
    N12     N    0.20670   0.41340   0.75000   1.000
    N13     N    0.41340   0.20670   0.91666   1.000
    N14     N    0.79330   0.20670   0.58333   1.000
    N15     N    0.79330   0.58660   0.25000   1.000
    N16     N    0.58660   0.79330   0.41666   1.000
    N17     N    0.20670   0.79330   0.08333   1.000
    N18     N    0.51301   0.00000   0.50000   1.000
    O19     O    0.53261   0.03772   0.57621   1.000
    O20     O    0.49489   0.96227   0.42379   1.000
    N21     N    0.48699   0.00000   1.00000   1.000
    O22     O    0.50511   0.03773   0.92379   1.000
    O23     O    0.46739   0.96227   0.07621   1.000
    N24     N    0.51301   0.51301   0.33333   1.000
    O25     O    0.53261   0.49489   0.25713   1.000
    O26     O    0.49489   0.53261   0.40954   1.000
    N27     N    0.00000   0.51301   0.16667   1.000
    O28     O    0.03773   0.53261   0.09046   1.000
    O29     O    0.96228   0.49489   0.24287   1.000
    N30     N    0.00000   0.48699   0.66667   1.000
    O31     O    0.03772   0.50511   0.74287   1.000
    O32     O    0.96228   0.46739   0.59046   1.000
    N33     N    0.48699   0.48699   0.83333   1.000
    O34     O    0.46739   0.50511   0.75713   1.000
    O35     O    0.50511   0.46739   0.90954   1.000
    O36     O    0.38125   0.63198   0.10863   1.000
    O37     O    0.37624   0.62650   0.05722   1.000
    O38     O    0.24927   0.36802   0.89137   1.000
    O39     O    0.24087   0.37339   0.94236   1.000
    O40     O    0.61875   0.36802   0.60863   1.000
    O41     O    0.62376   0.37350   0.55722   1.000
    O42     O    0.62650   0.75027   0.22388   1.000
    O43     O    0.63198   0.75073   0.27530   1.000
    O44     O    0.75027   0.62650   0.44278   1.000
    O45     O    0.75073   0.63198   0.39137   1.000
    O46     O    0.37624   0.24973   0.77612   1.000
    O47     O    0.38125   0.24927   0.72470   1.000
loop_
    _geom_bond_atom_site_label_1
    _geom_bond_atom_site_label_2
    _geom_bond_distance
    _geom_bond_site_symmetry_2
    _ccdc_geom_bond_type
    N18    O19       2.20242      .   S
    Zr1    O19       3.12523      .   S
    N18    O20       2.20236  1_545   S
    Zr8    O20       3.12517      .   S
    N21    O22       2.20236      .   S
    Zr11   O22       3.12517      .   S
    N21    O23       2.20242  1_546   S
    Zr4    O23       3.12523      .   S
    N24    O25       2.20239      .   S
    Zr9    O25       3.12533      .   S
    N24    O26       2.20239      .   S
    Zr3    O26       3.12533      .   S
    N27    O28       2.20239      .   S
    Zr7    O28       3.12533  1_556   S
    N27    O29       2.20239  1_455   S
    Zr2    O29       3.12533      .   S
    N30    O31       2.20239      .   S
    Zr5    O31       3.12533      .   S
    N30    O32       2.20239  1_455   S
    Zr10   O32       3.12533      .   S
    N33    O34       2.20239      .   S
    Zr6    O34       3.12533      .   S
    N33    O35       2.20239      .   S
    Zr0    O35       3.12533  1_554   S
    N17    O36       7.03257      .   S
    Zr9    O36       6.92470      .   S
    N17    O37       7.04264      .   S
    Zr0    O37       6.91314      .   S
    N13    O38       6.81479      .   S
    Zr5    O38       7.10920      .   S
    N13    O39       7.10161      .   S
    Zr7    O39       7.00635      .   S
    N14    O40       7.03257      .   S
    Zr6    O40       6.92470      .   S
    N14    O41       7.04264      .   S
    Zr3    O41       6.91314      .   S
    N15    O42       6.92096      .   S
    Zr4    O42       7.18490      .   S
    N15    O43       6.81480      .   S
    Zr8    O43       7.10924      .   S
    N16    O44       6.92097      .   S
    Zr10   O44       7.18490      .   S
    N16    O45       6.81479      .   S
    Zr2    O45       7.10920      .   S
    N12    O46       6.97801      .   S
    Zr11   O46       6.94781      .   S
    N12    O47       7.09012      .   S
    Zr1    O47       7.01931      .   S
