# CIF file generated by openbabel 2.4.90, see http://openbabel.sf.net
data_I
_chemical_name_common ''
_cell_length_a 24.057
_cell_length_b 24.057
_cell_length_c 26.996
_cell_angle_alpha 90
_cell_angle_beta 90
_cell_angle_gamma 120
_space_group_name_H-M_alt 'P 1'
_space_group_name_Hall 'P 1'
loop_
    _symmetry_equiv_pos_as_xyz
    x,y,z
loop_
    _atom_site_label
    _atom_site_type_symbol
    _atom_site_fract_x
    _atom_site_fract_y
    _atom_site_fract_z
    _atom_site_occupancy
    Zr0     Zr   0.53463   0.45653   0.02073   1.000
    Zr1     Zr   0.54347   0.07810   0.68739   1.000
    Zr2     Zr   0.92190   0.46537   0.35406   1.000
    Zr3     Zr   0.46537   0.54347   0.52073   1.000
    Zr4     Zr   0.45653   0.92190   0.18739   1.000
    Zr5     Zr   0.07810   0.53463   0.85406   1.000
    Zr6     Zr   0.45653   0.53463   0.64594   1.000
    Zr7     Zr   0.07810   0.54347   0.97927   1.000
    Zr8     Zr   0.46537   0.92190   0.31261   1.000
    Zr9     Zr   0.54347   0.46537   0.14594   1.000
    Zr10    Zr   0.92190   0.45653   0.47927   1.000
    Zr11    Zr   0.53463   0.07810   0.81261   1.000
    N12     N    0.20670   0.41340   0.75000   1.000
    O13     O    0.35818   0.22360   0.77569   1.000
    O14     O    0.36585   0.25906   0.72265   1.000
    O15     O    0.36034   0.25721   0.77407   1.000
    O16     O    0.36542   0.22360   0.72431   1.000
    O17     O    0.39686   0.25721   0.72593   1.000
    O18     O    0.39321   0.25906   0.77735   1.000
    N19     N    0.41340   0.20670   0.91666   1.000
    O20     O    0.25906   0.36585   0.94402   1.000
    O21     O    0.25721   0.39686   0.94074   1.000
    O22     O    0.25906   0.39321   0.88931   1.000
    O23     O    0.22360   0.35818   0.89097   1.000
    O24     O    0.22360   0.36542   0.94235   1.000
    O25     O    0.25721   0.36034   0.89259   1.000
    N26     N    0.79330   0.20670   0.58333   1.000
    O27     O    0.64182   0.36542   0.55764   1.000
    O28     O    0.63415   0.39321   0.61069   1.000
    O29     O    0.63458   0.35818   0.60902   1.000
    O30     O    0.60314   0.36034   0.60741   1.000
    O31     O    0.63966   0.39686   0.55926   1.000
    O32     O    0.60679   0.36585   0.55598   1.000
    N33     N    0.79330   0.58660   0.25000   1.000
    O34     O    0.60679   0.74094   0.27735   1.000
    O35     O    0.63458   0.77640   0.22431   1.000
    O36     O    0.60314   0.74279   0.22593   1.000
    O37     O    0.63415   0.74094   0.22265   1.000
    O38     O    0.64182   0.77640   0.27569   1.000
    O39     O    0.63966   0.74279   0.27407   1.000
    N40     N    0.58660   0.79330   0.41666   1.000
    O41     O    0.74279   0.60314   0.44074   1.000
    O42     O    0.77640   0.64182   0.39097   1.000
    O43     O    0.74094   0.60679   0.38931   1.000
    O44     O    0.77640   0.63458   0.44235   1.000
    O45     O    0.74279   0.63966   0.39259   1.000
    O46     O    0.74094   0.63415   0.44402   1.000
    N47     N    0.20670   0.79330   0.08333   1.000
    O48     O    0.39686   0.63966   0.10741   1.000
    O49     O    0.39321   0.63415   0.05598   1.000
    O50     O    0.35818   0.63458   0.05764   1.000
    O51     O    0.36542   0.64182   0.10902   1.000
    O52     O    0.36585   0.60679   0.11069   1.000
    O53     O    0.36034   0.60314   0.05926   1.000
    N54     N    0.51301   0.00000   0.50000   1.000
    O55     O    0.53261   0.03772   0.57621   1.000
    O56     O    0.49489   0.96227   0.42379   1.000
    N57     N    0.48699   0.00000   1.00000   1.000
    O58     O    0.50511   0.03773   0.92379   1.000
    O59     O    0.46739   0.96227   0.07621   1.000
    N60     N    0.51301   0.51301   0.33333   1.000
    O61     O    0.53261   0.49489   0.25713   1.000
    O62     O    0.49489   0.53261   0.40954   1.000
    N63     N    0.00000   0.51301   0.16667   1.000
    O64     O    0.03773   0.53261   0.09046   1.000
    O65     O    0.96228   0.49489   0.24287   1.000
    N66     N    0.00000   0.48699   0.66667   1.000
    O67     O    0.03772   0.50511   0.74287   1.000
    O68     O    0.96228   0.46739   0.59046   1.000
    N69     N    0.48699   0.48699   0.83333   1.000
    O70     O    0.46739   0.50511   0.75713   1.000
    O71     O    0.50511   0.46739   0.90954   1.000
loop_
    _geom_bond_atom_site_label_1
    _geom_bond_atom_site_label_2
    _geom_bond_distance
    _geom_bond_site_symmetry_2
    _ccdc_geom_bond_type
    N12    O13       7.15886      .   S
    Zr11   O13       6.79130      .   S
    N12    O14       6.57309      .   S
    Zr1    O14       7.53113      .   S
    N12    O15       6.48779      .   S
    Zr11   O15       7.43599      .   S
    N12    O16       7.30356      .   S
    Zr1    O16       6.82545      .   S
    N12    O17       7.25671      .   S
    Zr1    O17       6.87628      .   S
    N12    O18       7.14997      .   S
    Zr11   O18       6.80027      .   S
    N19    O20       6.57310      .   S
    Zr7    O20       7.53112      .   S
    N19    O21       7.25672      .   S
    Zr7    O21       6.87627      .   S
    N19    O22       7.14996      .   S
    Zr5    O22       6.80023      .   S
    N19    O23       7.15885      .   S
    Zr5    O23       6.79127      .   S
    N19    O24       7.30357      .   S
    Zr7    O24       6.82544      .   S
    N19    O25       6.48778      .   S
    Zr5    O25       7.43595      .   S
    N26    O27       6.50045      .   S
    Zr3    O27       7.45256      .   S
    N26    O28       7.24678      .   S
    Zr6    O28       6.72873      .   S
    N26    O29       6.50046      .   S
    Zr6    O29       7.45257      .   S
    N26    O30       7.20572      .   S
    Zr6    O30       6.77412      .   S
    N26    O31       7.20571      .   S
    Zr3    O31       6.77411      .   S
    N26    O32       7.24677      .   S
    Zr3    O32       6.72871      .   S
    N33    O34       7.14997      .   S
    Zr8    O34       6.80027      .   S
    N33    O35       7.30356      .   S
    Zr4    O35       6.82545      .   S
    N33    O36       7.25671      .   S
    Zr4    O36       6.87628      .   S
    N33    O37       6.57309      .   S
    Zr4    O37       7.53113      .   S
    N33    O38       7.15886      .   S
    Zr8    O38       6.79130      .   S
    N33    O39       6.48779      .   S
    Zr8    O39       7.43599      .   S
    N40    O41       7.25672      .   S
    Zr10   O41       6.87627      .   S
    N40    O42       7.15885      .   S
    Zr2    O42       6.79127      .   S
    N40    O43       7.14996      .   S
    Zr2    O43       6.80023      .   S
    N40    O44       7.30357      .   S
    Zr10   O44       6.82544      .   S
    N40    O45       6.48778      .   S
    Zr2    O45       7.43595      .   S
    N40    O46       6.57310      .   S
    Zr10   O46       7.53112      .   S
    N47    O48       7.20572      .   S
    Zr9    O48       6.77412      .   S
    N47    O49       7.24677      .   S
    Zr0    O49       6.72871      .   S
    N47    O50       6.50045      .   S
    Zr0    O50       7.45256      .   S
    N47    O51       6.50046      .   S
    Zr9    O51       7.45257      .   S
    N47    O52       7.24678      .   S
    Zr9    O52       6.72873      .   S
    N47    O53       7.20571      .   S
    Zr0    O53       6.77411      .   S
    N54    O55       2.20242      .   S
    Zr1    O55       3.12523      .   S
    N54    O56       2.20236  1_545   S
    Zr8    O56       3.12517      .   S
    N57    O58       2.20236      .   S
    Zr11   O58       3.12517      .   S
    N57    O59       2.20242  1_546   S
    Zr4    O59       3.12523      .   S
    N60    O61       2.20239      .   S
    Zr9    O61       3.12533      .   S
    N60    O62       2.20239      .   S
    Zr3    O62       3.12533      .   S
    N63    O64       2.20239      .   S
    Zr7    O64       3.12533  1_556   S
    N63    O65       2.20239  1_455   S
    Zr2    O65       3.12533      .   S
    N66    O67       2.20239      .   S
    Zr5    O67       3.12533      .   S
    N66    O68       2.20239  1_455   S
    Zr10   O68       3.12533      .   S
    N69    O70       2.20239      .   S
    Zr6    O70       3.12533      .   S
    N69    O71       2.20239      .   S
    Zr0    O71       3.12533  1_554   S
