# CIF file generated by openbabel 2.4.90, see http://openbabel.sf.net
data_I
_chemical_name_common ''
_cell_length_a 24.057
_cell_length_b 24.057
_cell_length_c 26.996
_cell_angle_alpha 90
_cell_angle_beta 90
_cell_angle_gamma 120
_space_group_name_H-M_alt 'P 1'
_space_group_name_Hall 'P 1'
loop_
    _symmetry_equiv_pos_as_xyz
    x,y,z
loop_
    _atom_site_label
    _atom_site_type_symbol
    _atom_site_fract_x
    _atom_site_fract_y
    _atom_site_fract_z
    _atom_site_occupancy
    C0      C    0.48770   0.34584   0.09106   1.000
    C1      C    0.45320   0.27333   0.09428   1.000
    C2      C    0.42618   0.23695   0.05099   1.000
    C3      C    0.44580   0.24208   0.13816   1.000
    C4      C    0.41248   0.17550   0.13970   1.000
    C5      C    0.38370   0.13940   0.09776   1.000
    C6      C    0.39360   0.17184   0.05329   1.000
    C7      C    0.34415   0.06780   0.09920   1.000
    C8      C    0.36143   0.03123   0.12795   1.000
    C9      C    0.32598   0.96419   0.12539   1.000
    C10     C    0.27373   0.93264   0.09423   1.000
    C11     C    0.25564   0.96995   0.06694   1.000
    C12     C    0.29003   0.03602   0.06944   1.000
    C13     C    0.23843   0.86207   0.08916   1.000
    C14     C    0.17178   0.82822   0.08330   1.000
    C15     C    0.27162   0.82833   0.08888   1.000
    C16     C    0.23855   0.76145   0.08330   1.000
    C17     C    0.27450   0.72550   0.08330   1.000
    C18     C    0.33013   0.74699   0.11080   1.000
    C19     C    0.36340   0.71332   0.11057   1.000
    C20     C    0.34212   0.65788   0.08330   1.000
    C21     C    0.37772   0.62228   0.08330   1.000
    C22     C    0.41267   0.62256   0.12458   1.000
    C23     C    0.48159   0.51841   0.08330   1.000
    C24     C    0.44576   0.55424   0.08330   1.000
    C25     C    0.44591   0.58901   0.12588   1.000
    C26     C    0.50502   0.48319   0.87528   1.000
    C27     C    0.44964   0.43649   0.85602   1.000
    C28     C    0.53379   0.48932   0.92589   1.000
    C29     C    0.65416   0.14186   0.75773   1.000
    C30     C    0.85814   0.51230   0.42439   1.000
    C31     C    0.51230   0.65416   0.59106   1.000
    C32     C    0.34584   0.85814   0.25773   1.000
    C33     C    0.14186   0.48770   0.92439   1.000
    C34     C    0.34584   0.48770   0.57561   1.000
    C35     C    0.14186   0.65416   0.90894   1.000
    C36     C    0.51230   0.85814   0.24227   1.000
    C37     C    0.65416   0.51230   0.07561   1.000
    C38     C    0.85814   0.34584   0.40894   1.000
    C39     C    0.48770   0.14186   0.74227   1.000
    C40     C    0.72667   0.17987   0.76095   1.000
    C41     C    0.82013   0.54680   0.42761   1.000
    C42     C    0.54680   0.72667   0.59428   1.000
    C43     C    0.27333   0.82013   0.26095   1.000
    C44     C    0.17987   0.45320   0.92761   1.000
    C45     C    0.27333   0.45320   0.57239   1.000
    C46     C    0.17987   0.72667   0.90572   1.000
    C47     C    0.54680   0.82013   0.23905   1.000
    C48     C    0.72667   0.54680   0.07239   1.000
    C49     C    0.82013   0.27333   0.40572   1.000
    C50     C    0.45320   0.17987   0.73905   1.000
    C51     C    0.76305   0.18923   0.71766   1.000
    C52     C    0.81077   0.57382   0.38432   1.000
    C53     C    0.57382   0.76305   0.55099   1.000
    C54     C    0.23695   0.81077   0.21766   1.000
    C55     C    0.18923   0.42618   0.88432   1.000
    C56     C    0.23695   0.42618   0.61568   1.000
    C57     C    0.18923   0.76305   0.94901   1.000
    C58     C    0.57382   0.81077   0.28234   1.000
    C59     C    0.76305   0.57382   0.11568   1.000
    C60     C    0.81077   0.23695   0.44901   1.000
    C61     C    0.42618   0.18923   0.78234   1.000
    C62     C    0.75792   0.20372   0.80483   1.000
    C63     C    0.79628   0.55420   0.47149   1.000
    C64     C    0.55420   0.75792   0.63816   1.000
    C65     C    0.24208   0.79628   0.30483   1.000
    C66     C    0.20372   0.44580   0.97149   1.000
    C67     C    0.24208   0.44580   0.52851   1.000
    C68     C    0.20372   0.75792   0.86184   1.000
    C69     C    0.55420   0.79628   0.19517   1.000
    C70     C    0.75792   0.55420   0.02851   1.000
    C71     C    0.79628   0.24208   0.36184   1.000
    C72     C    0.44580   0.20372   0.69517   1.000
    C73     C    0.82450   0.23698   0.80637   1.000
    C74     C    0.76302   0.58752   0.47303   1.000
    C75     C    0.58752   0.82450   0.63970   1.000
    C76     C    0.17550   0.76302   0.30637   1.000
    C77     C    0.23698   0.41248   0.97303   1.000
    C78     C    0.17550   0.41248   0.52697   1.000
    C79     C    0.23698   0.82450   0.86030   1.000
    C80     C    0.58752   0.76302   0.19363   1.000
    C81     C    0.82450   0.58752   0.02697   1.000
    C82     C    0.76302   0.17550   0.36030   1.000
    C83     C    0.41248   0.23698   0.69363   1.000
    C84     C    0.86060   0.24430   0.76443   1.000
    C85     C    0.75570   0.61630   0.43109   1.000
    C86     C    0.61630   0.86060   0.59776   1.000
    C87     C    0.13940   0.75570   0.26443   1.000
    C88     C    0.24430   0.38370   0.93109   1.000
    C89     C    0.13940   0.38370   0.56891   1.000
    C90     C    0.24430   0.86060   0.90224   1.000
    C91     C    0.61630   0.75570   0.23557   1.000
    C92     C    0.86060   0.61630   0.06891   1.000
    C93     C    0.75570   0.13940   0.40224   1.000
    C94     C    0.38370   0.24430   0.73557   1.000
    C95     C    0.82816   0.22176   0.71996   1.000
    C96     C    0.77824   0.60640   0.38662   1.000
    C97     C    0.60640   0.82816   0.55329   1.000
    C98     C    0.17184   0.77824   0.21996   1.000
    C99     C    0.22176   0.39360   0.88662   1.000
    C100    C    0.17184   0.39360   0.61338   1.000
    C101    C    0.22176   0.82816   0.94671   1.000
    C102    C    0.60640   0.77824   0.28004   1.000
    C103    C    0.82816   0.60640   0.11338   1.000
    C104    C    0.77824   0.17184   0.44671   1.000
    C105    C    0.39360   0.22176   0.78004   1.000
    C106    C    0.93220   0.27635   0.76587   1.000
    C107    C    0.72365   0.65585   0.43253   1.000
    C108    C    0.65585   0.93220   0.59920   1.000
    C109    C    0.06780   0.72365   0.26587   1.000
    C110    C    0.27635   0.34415   0.93253   1.000
    C111    C    0.06780   0.34415   0.56747   1.000
    C112    C    0.27635   0.93220   0.90080   1.000
    C113    C    0.65585   0.72365   0.23413   1.000
    C114    C    0.93220   0.65585   0.06747   1.000
    C115    C    0.72365   0.06780   0.40080   1.000
    C116    C    0.34415   0.27635   0.73413   1.000
    C117    C    0.96877   0.33020   0.79462   1.000
    C118    C    0.66980   0.63857   0.46128   1.000
    C119    C    0.63857   0.96877   0.62795   1.000
    C120    C    0.03123   0.66980   0.29462   1.000
    C121    C    0.33020   0.36143   0.96128   1.000
    C122    C    0.03123   0.36143   0.53872   1.000
    C123    C    0.33020   0.96877   0.87205   1.000
    C124    C    0.63857   0.66980   0.20538   1.000
    C125    C    0.96877   0.63857   0.03872   1.000
    C126    C    0.66980   0.03123   0.37205   1.000
    C127    C    0.36143   0.33020   0.70538   1.000
    C128    C    0.03581   0.36179   0.79206   1.000
    C129    C    0.63821   0.67402   0.45872   1.000
    C130    C    0.67402   0.03581   0.62539   1.000
    C131    C    0.96419   0.63821   0.29206   1.000
    C132    C    0.36179   0.32598   0.95872   1.000
    C133    C    0.96419   0.32598   0.54128   1.000
    C134    C    0.36179   0.03581   0.87461   1.000
    C135    C    0.67402   0.63821   0.20794   1.000
    C136    C    0.03581   0.67402   0.04128   1.000
    C137    C    0.63821   0.96419   0.37461   1.000
    C138    C    0.32598   0.36179   0.70794   1.000
    C139    C    0.06736   0.34109   0.76090   1.000
    C140    C    0.65891   0.72627   0.42756   1.000
    C141    C    0.72627   0.06736   0.59423   1.000
    C142    C    0.93264   0.65891   0.26090   1.000
    C143    C    0.34109   0.27373   0.92756   1.000
    C144    C    0.93264   0.27373   0.57244   1.000
    C145    C    0.34109   0.06736   0.90577   1.000
    C146    C    0.72627   0.65891   0.23910   1.000
    C147    C    0.06736   0.72627   0.07244   1.000
    C148    C    0.65891   0.93264   0.40577   1.000
    C149    C    0.27373   0.34109   0.73910   1.000
    C150    C    0.03005   0.28569   0.73361   1.000
    C151    C    0.71431   0.74436   0.40027   1.000
    C152    C    0.74436   0.03005   0.56694   1.000
    C153    C    0.96995   0.71431   0.23361   1.000
    C154    C    0.28569   0.25564   0.90027   1.000
    C155    C    0.96995   0.25564   0.59973   1.000
    C156    C    0.28569   0.03005   0.93306   1.000
    C157    C    0.74436   0.71431   0.26639   1.000
    C158    C    0.03005   0.74436   0.09973   1.000
    C159    C    0.71431   0.96995   0.43306   1.000
    C160    C    0.25564   0.28569   0.76639   1.000
    C161    C    0.96398   0.25401   0.73611   1.000
    C162    C    0.74599   0.70997   0.40277   1.000
    C163    C    0.70997   0.96398   0.56944   1.000
    C164    C    0.03602   0.74599   0.23611   1.000
    C165    C    0.25401   0.29003   0.90277   1.000
    C166    C    0.03602   0.29003   0.59723   1.000
    C167    C    0.25401   0.96398   0.93056   1.000
    C168    C    0.70997   0.74599   0.26389   1.000
    C169    C    0.96398   0.70997   0.09723   1.000
    C170    C    0.74599   0.03602   0.43056   1.000
    C171    C    0.29003   0.25401   0.76389   1.000
    C172    C    0.13793   0.37636   0.75583   1.000
    C173    C    0.62364   0.76157   0.42249   1.000
    C174    C    0.76157   0.13793   0.58916   1.000
    C175    C    0.86207   0.62364   0.25583   1.000
    C176    C    0.37636   0.23843   0.92249   1.000
    C177    C    0.86207   0.23843   0.57751   1.000
    C178    C    0.37636   0.13793   0.91084   1.000
    C179    C    0.76157   0.62364   0.24417   1.000
    C180    C    0.13793   0.76157   0.07751   1.000
    C181    C    0.62364   0.86207   0.41084   1.000
    C182    C    0.23843   0.37636   0.74417   1.000
    C183    C    0.17178   0.34356   0.74997   1.000
    C184    C    0.65644   0.82822   0.41663   1.000
    C185    C    0.82822   0.17178   0.58330   1.000
    C186    C    0.82822   0.65644   0.24997   1.000
    C187    C    0.34356   0.17178   0.91663   1.000
    C188    C    0.17167   0.44329   0.75555   1.000
    C189    C    0.55671   0.72838   0.42221   1.000
    C190    C    0.72838   0.17167   0.58888   1.000
    C191    C    0.82833   0.55671   0.25555   1.000
    C192    C    0.44329   0.27162   0.92221   1.000
    C193    C    0.82833   0.27162   0.57779   1.000
    C194    C    0.44329   0.17167   0.91112   1.000
    C195    C    0.72838   0.55671   0.24445   1.000
    C196    C    0.17167   0.72838   0.07779   1.000
    C197    C    0.55671   0.82833   0.41112   1.000
    C198    C    0.27162   0.44329   0.74445   1.000
    C199    C    0.23855   0.47710   0.74997   1.000
    C200    C    0.52290   0.76145   0.41663   1.000
    C201    C    0.76145   0.23855   0.58330   1.000
    C202    C    0.76145   0.52290   0.24997   1.000
    C203    C    0.47710   0.23855   0.91663   1.000
    C204    C    0.27450   0.54900   0.74997   1.000
    C205    C    0.45100   0.72550   0.41663   1.000
    C206    C    0.72550   0.27450   0.58330   1.000
    C207    C    0.72550   0.45100   0.24997   1.000
    C208    C    0.54900   0.27450   0.91663   1.000
    C209    C    0.25301   0.58314   0.77747   1.000
    C210    C    0.41686   0.66987   0.44413   1.000
    C211    C    0.66987   0.25301   0.61080   1.000
    C212    C    0.74699   0.41686   0.27747   1.000
    C213    C    0.58314   0.33013   0.94413   1.000
    C214    C    0.74699   0.33013   0.55587   1.000
    C215    C    0.58314   0.25301   0.88920   1.000
    C216    C    0.66987   0.41686   0.22253   1.000
    C217    C    0.25301   0.66987   0.05587   1.000
    C218    C    0.41686   0.74699   0.38920   1.000
    C219    C    0.33013   0.58314   0.72253   1.000
    C220    C    0.28668   0.65008   0.77724   1.000
    C221    C    0.34992   0.63660   0.44390   1.000
    C222    C    0.63660   0.28668   0.61057   1.000
    C223    C    0.71332   0.34992   0.27724   1.000
    C224    C    0.65008   0.36340   0.94390   1.000
    C225    C    0.71332   0.36340   0.55610   1.000
    C226    C    0.65008   0.28668   0.88943   1.000
    C227    C    0.63660   0.34992   0.22276   1.000
    C228    C    0.28668   0.63660   0.05610   1.000
    C229    C    0.34992   0.71332   0.38943   1.000
    C230    C    0.36340   0.65008   0.72276   1.000
    C231    C    0.34212   0.68424   0.74997   1.000
    C232    C    0.31576   0.65788   0.41663   1.000
    C233    C    0.65788   0.34212   0.58330   1.000
    C234    C    0.65788   0.31576   0.24997   1.000
    C235    C    0.68424   0.34212   0.91663   1.000
    C236    C    0.37772   0.75544   0.74997   1.000
    C237    C    0.24456   0.62228   0.41663   1.000
    C238    C    0.62228   0.37772   0.58330   1.000
    C239    C    0.62228   0.24456   0.24997   1.000
    C240    C    0.75544   0.37772   0.91663   1.000
    C241    C    0.37744   0.79011   0.79125   1.000
    C242    C    0.20989   0.58733   0.45791   1.000
    C243    C    0.58733   0.37744   0.62458   1.000
    C244    C    0.62256   0.20989   0.29125   1.000
    C245    C    0.79011   0.41267   0.95791   1.000
    C246    C    0.62256   0.41267   0.54209   1.000
    C247    C    0.79011   0.37744   0.87542   1.000
    C248    C    0.58733   0.20989   0.20875   1.000
    C249    C    0.37744   0.58733   0.04209   1.000
    C250    C    0.20989   0.62256   0.37542   1.000
    C251    C    0.41267   0.79011   0.70875   1.000
    C252    C    0.48159   0.96318   0.74997   1.000
    C253    C    0.03682   0.51841   0.41663   1.000
    C254    C    0.51841   0.48159   0.58330   1.000
    C255    C    0.51841   0.03682   0.24997   1.000
    C256    C    0.96318   0.48159   0.91663   1.000
    C257    C    0.44576   0.89152   0.74997   1.000
    C258    C    0.10848   0.55424   0.41663   1.000
    C259    C    0.55424   0.44576   0.58330   1.000
    C260    C    0.55424   0.10848   0.24997   1.000
    C261    C    0.89152   0.44576   0.91663   1.000
    C262    C    0.41099   0.85690   0.79255   1.000
    C263    C    0.14310   0.55409   0.45921   1.000
    C264    C    0.55409   0.41099   0.62588   1.000
    C265    C    0.58901   0.14310   0.29255   1.000
    C266    C    0.85690   0.44591   0.95921   1.000
    C267    C    0.58901   0.44591   0.54079   1.000
    C268    C    0.85690   0.41099   0.87412   1.000
    C269    C    0.55409   0.14310   0.20745   1.000
    C270    C    0.41099   0.55409   0.04079   1.000
    C271    C    0.14310   0.58901   0.37412   1.000
    C272    C    0.44591   0.85690   0.70745   1.000
    C273    C    0.51681   0.02183   0.54195   1.000
    C274    C    0.97817   0.49498   0.20861   1.000
    C275    C    0.49498   0.51681   0.37528   1.000
    C276    C    0.48319   0.97817   0.04195   1.000
    C277    C    0.02183   0.50502   0.70861   1.000
    C278    C    0.48319   0.50502   0.79139   1.000
    C279    C    0.02183   0.51681   0.12472   1.000
    C280    C    0.49498   0.97817   0.45805   1.000
    C281    C    0.51681   0.49498   0.29139   1.000
    C282    C    0.97817   0.48319   0.62472   1.000
    C283    C    0.50502   0.02183   0.95805   1.000
    C284    C    0.56351   0.01315   0.52269   1.000
    C285    C    0.98685   0.55036   0.18935   1.000
    C286    C    0.55036   0.56351   0.35602   1.000
    C287    C    0.43649   0.98685   0.02269   1.000
    C288    C    0.01315   0.44964   0.68935   1.000
    C289    C    0.43649   0.44964   0.81065   1.000
    C290    C    0.01315   0.56351   0.14398   1.000
    C291    C    0.55036   0.98685   0.47731   1.000
    C292    C    0.56351   0.55036   0.31065   1.000
    C293    C    0.98685   0.43649   0.64398   1.000
    C294    C    0.44964   0.01315   0.97731   1.000
    C295    C    0.51068   0.04447   0.59256   1.000
    C296    C    0.95553   0.46621   0.25922   1.000
    C297    C    0.46621   0.51068   0.42589   1.000
    C298    C    0.48932   0.95553   0.09256   1.000
    C299    C    0.04447   0.53379   0.75922   1.000
    C300    C    0.48932   0.53379   0.74078   1.000
    C301    C    0.04447   0.51068   0.07411   1.000
    C302    C    0.46621   0.95553   0.40744   1.000
    C303    C    0.51068   0.46621   0.24078   1.000
    C304    C    0.95553   0.48932   0.57411   1.000
    C305    C    0.53379   0.04447   0.90744   1.000
    C306    C    0.43070   0.25750   0.02090   1.000
    C307    C    0.46310   0.26550   0.16710   1.000
    C308    C    0.40940   0.15480   0.16950   1.000
    C309    C    0.37750   0.14840   0.02420   1.000
    C310    C    0.39660   0.05120   0.14900   1.000
    C311    C    0.33790   0.94020   0.14520   1.000
    C312    C    0.21970   0.95000   0.04660   1.000
    C313    C    0.27670   0.05980   0.05080   1.000
    C314    C    0.14950   0.85050   0.08330   1.000
    C315    C    0.31600   0.85040   0.09240   1.000
    C316    C    0.34550   0.78420   0.12960   1.000
    C317    C    0.40070   0.72860   0.12920   1.000
    C318    C    0.41380   0.64610   0.15230   1.000
    C319    C    0.46800   0.58940   0.15430   1.000
    C320    C    0.42280   0.39850   0.87270   1.000
    C321    C    0.74250   0.17320   0.68757   1.000
    C322    C    0.82680   0.56930   0.35423   1.000
    C323    C    0.56930   0.74250   0.52090   1.000
    C324    C    0.25750   0.82680   0.18757   1.000
    C325    C    0.17320   0.43070   0.85423   1.000
    C326    C    0.25750   0.43070   0.64577   1.000
    C327    C    0.17320   0.74250   0.97910   1.000
    C328    C    0.56930   0.82680   0.31243   1.000
    C329    C    0.74250   0.56930   0.14577   1.000
    C330    C    0.82680   0.25750   0.47910   1.000
    C331    C    0.43070   0.17320   0.81243   1.000
    C332    C    0.73450   0.19760   0.83377   1.000
    C333    C    0.80240   0.53690   0.50043   1.000
    C334    C    0.53690   0.73450   0.66710   1.000
    C335    C    0.26550   0.80240   0.33377   1.000
    C336    C    0.19760   0.46310   0.00043   1.000
    C337    C    0.26550   0.46310   0.49957   1.000
    C338    C    0.19760   0.73450   0.83290   1.000
    C339    C    0.53690   0.80240   0.16623   1.000
    C340    C    0.73450   0.53690   0.99957   1.000
    C341    C    0.80240   0.26550   0.33290   1.000
    C342    C    0.46310   0.19760   0.66623   1.000
    C343    C    0.84520   0.25460   0.83617   1.000
    C344    C    0.74540   0.59060   0.50283   1.000
    C345    C    0.59060   0.84520   0.66950   1.000
    C346    C    0.15480   0.74540   0.33617   1.000
    C347    C    0.25460   0.40940   0.00283   1.000
    C348    C    0.15480   0.40940   0.49717   1.000
    C349    C    0.25460   0.84520   0.83050   1.000
    C350    C    0.59060   0.74540   0.16383   1.000
    C351    C    0.84520   0.59060   0.99717   1.000
    C352    C    0.74540   0.15480   0.33050   1.000
    C353    C    0.40940   0.25460   0.66383   1.000
    C354    C    0.85160   0.22910   0.69087   1.000
    C355    C    0.77090   0.62250   0.35753   1.000
    C356    C    0.62250   0.85160   0.52420   1.000
    C357    C    0.14840   0.77090   0.19087   1.000
    C358    C    0.22910   0.37750   0.85753   1.000
    C359    C    0.14840   0.37750   0.64247   1.000
    C360    C    0.22910   0.85160   0.97580   1.000
    C361    C    0.62250   0.77090   0.30913   1.000
    C362    C    0.85160   0.62250   0.14247   1.000
    C363    C    0.77090   0.14840   0.47580   1.000
    C364    C    0.37750   0.22910   0.80913   1.000
    C365    C    0.94880   0.34540   0.81567   1.000
    C366    C    0.65460   0.60340   0.48233   1.000
    C367    C    0.60340   0.94880   0.64900   1.000
    C368    C    0.05120   0.65460   0.31567   1.000
    C369    C    0.34540   0.39660   0.98233   1.000
    C370    C    0.05120   0.39660   0.51767   1.000
    C371    C    0.34540   0.94880   0.85100   1.000
    C372    C    0.60340   0.65460   0.18433   1.000
    C373    C    0.94880   0.60340   0.01767   1.000
    C374    C    0.65460   0.05120   0.35100   1.000
    C375    C    0.39660   0.34540   0.68433   1.000
    C376    C    0.05980   0.39770   0.81187   1.000
    C377    C    0.60230   0.66210   0.47853   1.000
    C378    C    0.66210   0.05980   0.64520   1.000
    C379    C    0.94020   0.60230   0.31187   1.000
    C380    C    0.39770   0.33790   0.97853   1.000
    C381    C    0.94020   0.33790   0.52147   1.000
    C382    C    0.39770   0.05980   0.85480   1.000
    C383    C    0.66210   0.60230   0.18813   1.000
    C384    C    0.05980   0.66210   0.02147   1.000
    C385    C    0.60230   0.94020   0.35480   1.000
    C386    C    0.33790   0.39770   0.68813   1.000
    C387    C    0.05000   0.26970   0.71327   1.000
    C388    C    0.73030   0.78030   0.37993   1.000
    C389    C    0.78030   0.05000   0.54660   1.000
    C390    C    0.95000   0.73030   0.21327   1.000
    C391    C    0.26970   0.21970   0.87993   1.000
    C392    C    0.95000   0.21970   0.62007   1.000
    C393    C    0.26970   0.05000   0.95340   1.000
    C394    C    0.78030   0.73030   0.28673   1.000
    C395    C    0.05000   0.78030   0.12007   1.000
    C396    C    0.73030   0.95000   0.45340   1.000
    C397    C    0.21970   0.26970   0.78673   1.000
    C398    C    0.94020   0.21690   0.71747   1.000
    C399    C    0.78310   0.72330   0.38413   1.000
    C400    C    0.72330   0.94020   0.55080   1.000
    C401    C    0.05980   0.78310   0.21747   1.000
    C402    C    0.21690   0.27670   0.88413   1.000
    C403    C    0.05980   0.27670   0.61587   1.000
    C404    C    0.21690   0.94020   0.94920   1.000
    C405    C    0.72330   0.78310   0.28253   1.000
    C406    C    0.94020   0.72330   0.11587   1.000
    C407    C    0.78310   0.05980   0.44920   1.000
    C408    C    0.27670   0.21690   0.78253   1.000
    C409    C    0.14950   0.29900   0.74997   1.000
    C410    C    0.70100   0.85050   0.41663   1.000
    C411    C    0.85050   0.14950   0.58330   1.000
    C412    C    0.85050   0.70100   0.24997   1.000
    C413    C    0.29900   0.14950   0.91663   1.000
    C414    C    0.14960   0.46560   0.75907   1.000
    C415    C    0.53440   0.68400   0.42573   1.000
    C416    C    0.68400   0.14960   0.59240   1.000
    C417    C    0.85040   0.53440   0.25907   1.000
    C418    C    0.46560   0.31600   0.92573   1.000
    C419    C    0.85040   0.31600   0.57427   1.000
    C420    C    0.46560   0.14960   0.90760   1.000
    C421    C    0.68400   0.53440   0.24093   1.000
    C422    C    0.14960   0.68400   0.07427   1.000
    C423    C    0.53440   0.85040   0.40760   1.000
    C424    C    0.31600   0.46560   0.74093   1.000
    C425    C    0.21580   0.56130   0.79627   1.000
    C426    C    0.43870   0.65450   0.46293   1.000
    C427    C    0.65450   0.21580   0.62960   1.000
    C428    C    0.78420   0.43870   0.29627   1.000
    C429    C    0.56130   0.34550   0.96293   1.000
    C430    C    0.78420   0.34550   0.53707   1.000
    C431    C    0.56130   0.21580   0.87040   1.000
    C432    C    0.65450   0.43870   0.20373   1.000
    C433    C    0.21580   0.65450   0.03707   1.000
    C434    C    0.43870   0.78420   0.37040   1.000
    C435    C    0.34550   0.56130   0.70373   1.000
    C436    C    0.27140   0.67210   0.79587   1.000
    C437    C    0.32790   0.59930   0.46253   1.000
    C438    C    0.59930   0.27140   0.62920   1.000
    C439    C    0.72860   0.32790   0.29587   1.000
    C440    C    0.67210   0.40070   0.96253   1.000
    C441    C    0.72860   0.40070   0.53747   1.000
    C442    C    0.67210   0.27140   0.87080   1.000
    C443    C    0.59930   0.32790   0.20413   1.000
    C444    C    0.27140   0.59930   0.03747   1.000
    C445    C    0.32790   0.72860   0.37080   1.000
    C446    C    0.40070   0.67210   0.70413   1.000
    C447    C    0.35390   0.76770   0.81897   1.000
    C448    C    0.23230   0.58620   0.48563   1.000
    C449    C    0.58620   0.35390   0.65230   1.000
    C450    C    0.64610   0.23230   0.31897   1.000
    C451    C    0.76770   0.41380   0.98563   1.000
    C452    C    0.64610   0.41380   0.51437   1.000
    C453    C    0.76770   0.35390   0.84770   1.000
    C454    C    0.58620   0.23230   0.18103   1.000
    C455    C    0.35390   0.58620   0.01437   1.000
    C456    C    0.23230   0.64610   0.34770   1.000
    C457    C    0.41380   0.76770   0.68103   1.000
    C458    C    0.41060   0.87860   0.82097   1.000
    C459    C    0.12140   0.53200   0.48763   1.000
    C460    C    0.53200   0.41060   0.65430   1.000
    C461    C    0.58940   0.12140   0.32097   1.000
    C462    C    0.87860   0.46800   0.98763   1.000
    C463    C    0.58940   0.46800   0.51237   1.000
    C464    C    0.87860   0.41060   0.84570   1.000
    C465    C    0.53200   0.12140   0.17903   1.000
    C466    C    0.41060   0.53200   0.01237   1.000
    C467    C    0.12140   0.58940   0.34570   1.000
    C468    C    0.46800   0.87860   0.67903   1.000
    C469    C    0.60150   0.02430   0.53937   1.000
    C470    C    0.97570   0.57720   0.20603   1.000
    C471    C    0.57720   0.60150   0.37270   1.000
    C472    C    0.39850   0.97570   0.03937   1.000
    C473    C    0.02430   0.42280   0.70603   1.000
    C474    C    0.39850   0.42280   0.79397   1.000
    C475    C    0.02430   0.60150   0.12730   1.000
    C476    C    0.57720   0.97570   0.46063   1.000
    C477    C    0.60150   0.57720   0.29397   1.000
    C478    C    0.97570   0.39850   0.62730   1.000
    C479    C    0.42280   0.02430   0.96063   1.000
    C480    C    0.51184   0.43904   0.95077   1.000
    C481    C    0.49334   0.36941   0.04965   1.000
    C482    C    0.62481   0.49346   0.03653   1.000
    C483    C    0.48471   0.49520   0.04318   1.000
    C484    C    0.57690   0.54038   0.94039   1.000
    C485    C    0.56096   0.07280   0.61744   1.000
    C486    C    0.92720   0.48816   0.28410   1.000
    C487    C    0.48816   0.56096   0.45077   1.000
    C488    C    0.43904   0.92720   0.11744   1.000
    C489    C    0.07280   0.51184   0.78410   1.000
    C490    C    0.43904   0.51184   0.71590   1.000
    C491    C    0.07280   0.56096   0.04923   1.000
    C492    C    0.48816   0.92720   0.38256   1.000
    C493    C    0.56096   0.48816   0.21590   1.000
    C494    C    0.92720   0.43904   0.54923   1.000
    C495    C    0.51184   0.07280   0.88256   1.000
    C496    C    0.63059   0.12393   0.71632   1.000
    C497    C    0.87607   0.50666   0.38298   1.000
    C498    C    0.50666   0.63059   0.54965   1.000
    C499    C    0.36941   0.87607   0.21632   1.000
    C500    C    0.12393   0.49334   0.88298   1.000
    C501    C    0.36941   0.49334   0.61702   1.000
    C502    C    0.12393   0.63059   0.95035   1.000
    C503    C    0.50666   0.87607   0.28368   1.000
    C504    C    0.63059   0.50666   0.11702   1.000
    C505    C    0.87607   0.36941   0.45035   1.000
    C506    C    0.49334   0.12393   0.78368   1.000
    C507    C    0.50654   0.13135   0.70320   1.000
    C508    C    0.86865   0.37519   0.36986   1.000
    C509    C    0.37519   0.50654   0.53653   1.000
    C510    C    0.49346   0.86865   0.20320   1.000
    C511    C    0.13135   0.62481   0.86986   1.000
    C512    C    0.49346   0.62481   0.63014   1.000
    C513    C    0.13135   0.50654   0.96347   1.000
    C514    C    0.37519   0.86865   0.29680   1.000
    C515    C    0.50654   0.37519   0.13014   1.000
    C516    C    0.86865   0.49346   0.46347   1.000
    C517    C    0.62481   0.13135   0.79680   1.000
    C518    C    0.50480   0.98951   0.70985   1.000
    C519    C    0.01049   0.51529   0.37651   1.000
    C520    C    0.51529   0.50480   0.54318   1.000
    C521    C    0.49520   0.01049   0.20985   1.000
    C522    C    0.98951   0.48471   0.87651   1.000
    C523    C    0.49520   0.48471   0.62349   1.000
    C524    C    0.98951   0.50480   0.95682   1.000
    C525    C    0.51529   0.01049   0.29015   1.000
    C526    C    0.50480   0.51529   0.12349   1.000
    C527    C    0.01049   0.49520   0.45682   1.000
    C528    C    0.48471   0.98951   0.79015   1.000
    C529    C    0.45962   0.03652   0.60706   1.000
    C530    C    0.96348   0.42310   0.27372   1.000
    C531    C    0.42310   0.45962   0.44039   1.000
    C532    C    0.54038   0.96348   0.10706   1.000
    C533    C    0.03652   0.57690   0.77372   1.000
    C534    C    0.54038   0.57690   0.72628   1.000
    C535    C    0.03652   0.45962   0.05961   1.000
    C536    C    0.42310   0.96348   0.39294   1.000
    C537    C    0.45962   0.42310   0.22628   1.000
    C538    C    0.96348   0.54038   0.55961   1.000
    C539    C    0.57690   0.03652   0.89294   1.000
    C540    C    0.54390   0.54390   0.83333   1.000
    C541    C    0.45610   0.00000   0.49997   1.000
    C542    C    0.00000   0.45610   0.16667   1.000
    C543    C    0.45610   0.45610   0.33333   1.000
    C544    C    0.54390   0.00000   0.99997   1.000
    C545    C    0.00000   0.54390   0.66667   1.000
    C546    C    0.53463   0.45653   0.02073   1.000
    C547    C    0.54347   0.07810   0.68739   1.000
    C548    C    0.92190   0.46537   0.35406   1.000
    C549    C    0.46537   0.54347   0.52073   1.000
    C550    C    0.45653   0.92190   0.18739   1.000
    C551    C    0.07810   0.53463   0.85406   1.000
    C552    C    0.45653   0.53463   0.64594   1.000
    C553    C    0.07810   0.54347   0.97927   1.000
    C554    C    0.46537   0.92190   0.31261   1.000
    C555    C    0.54347   0.46537   0.14594   1.000
    C556    C    0.92190   0.45653   0.47927   1.000
    C557    C    0.53463   0.07810   0.81261   1.000
    O558    O    0.20066   0.45445   0.98596   1.000
    O559    O    0.24579   0.41094   0.98793   1.000
    O560    O    0.41080   0.54304   0.02658   1.000
    O561    O    0.36567   0.58676   0.02823   1.000
    O562    O    0.95879   0.62098   0.02820   1.000
    O563    O    0.57972   0.47499   0.02863   1.000
    O564    O    0.50967   0.47586   0.03196   1.000
    O565    O    0.51399   0.41297   0.03519   1.000
    O566    O    0.52324   0.44778   0.98575   1.000
    O567    O    0.42844   0.24723   0.03595   1.000
    O568    O    0.04780   0.66806   0.03138   1.000
    O569    O    0.41750   0.98128   0.03103   1.000
    O570    O    0.45984   0.98251   0.03232   1.000
    O571    O    0.44306   0.00000   0.00000   1.000
    O572    O    0.38555   0.16012   0.03875   1.000
    O573    O    0.79121   0.57086   0.02774   1.000
    O574    O    0.84255   0.60191   0.04794   1.000
    O575    O    0.83485   0.58906   0.01207   1.000
    O576    O    0.74230   0.55050   0.05045   1.000
    O577    O    0.74621   0.54555   0.01404   1.000
    O578    O    0.63949   0.50288   0.05607   1.000
    O579    O    0.23441   0.66218   0.04647   1.000
    O580    O    0.27904   0.61795   0.04679   1.000
    O581    O    0.00229   0.65629   0.04000   1.000
    O582    O    0.95049   0.64721   0.05309   1.000
    O583    O    0.39422   0.57071   0.04144   1.000
    O584    O    0.42837   0.55416   0.06205   1.000
    O585    O    0.05159   0.70014   0.05686   1.000
    O586    O    0.48626   0.96685   0.06726   1.000
    O587    O    0.51355   0.98908   0.02096   1.000
    O588    O    0.37758   0.60480   0.06270   1.000
    O589    O    0.48315   0.50680   0.06324   1.000
    O590    O    0.23767   0.95997   0.05677   1.000
    O591    O    0.05863   0.53582   0.06167   1.000
    O592    O    0.07545   0.55221   0.01425   1.000
    O593    O    0.49052   0.35763   0.07036   1.000
    O594    O    0.28337   0.04791   0.06012   1.000
    O595    O    0.40989   0.20439   0.05214   1.000
    O596    O    0.43969   0.25514   0.07264   1.000
    O597    O    0.38865   0.15562   0.07553   1.000
    O598    O    0.26985   0.65324   0.05599   1.000
    O599    O    0.26376   0.69768   0.06959   1.000
    O600    O    0.31440   0.64724   0.06970   1.000
    O601    O    0.04049   0.48515   0.06686   1.000
    O602    O    0.27284   0.00299   0.06819   1.000
    O603    O    0.26469   0.95129   0.08059   1.000
    O604    O    0.89640   0.63607   0.06819   1.000
    O605    O    0.94809   0.68291   0.08235   1.000
    O606    O    0.84438   0.61135   0.09115   1.000
    O607    O    0.31709   0.05191   0.08432   1.000
    O608    O    0.69042   0.52955   0.07400   1.000
    O609    O    0.74486   0.56031   0.09404   1.000
    O610    O    0.10264   0.74392   0.07498   1.000
    O611    O    0.04871   0.73531   0.08609   1.000
    O612    O    0.03315   0.51375   0.09942   1.000
    O613    O    0.16064   0.70619   0.07603   1.000
    O614    O    0.64237   0.50948   0.09632   1.000
    O615    O    0.15480   0.74497   0.07765   1.000
    O616    O    0.15485   0.79489   0.08041   1.000
    O617    O    0.20511   0.74491   0.08055   1.000
    O618    O    0.46368   0.53632   0.08330   1.000
    O619    O    0.49320   0.51685   0.10340   1.000
    O620    O    0.25653   0.74347   0.08330   1.000
    O621    O    0.30232   0.73625   0.09705   1.000
    O622    O    0.25509   0.79489   0.08609   1.000
    O623    O    0.35992   0.64008   0.08330   1.000
    O624    O    0.35276   0.68560   0.09694   1.000
    O625    O    0.39520   0.62242   0.10394   1.000
    O626    O    0.16064   0.83936   0.08330   1.000
    O627    O    0.20511   0.84514   0.08623   1.000
    O628    O    0.44583   0.57162   0.10459   1.000
    O629    O    0.25502   0.84520   0.08902   1.000
    O630    O    0.29381   0.83936   0.09064   1.000
    O631    O    0.25608   0.89735   0.09170   1.000
    O632    O    0.47045   0.30958   0.09267   1.000
    O633    O    0.49712   0.36051   0.11060   1.000
    O634    O    0.51485   0.95950   0.09981   1.000
    O635    O    0.46418   0.94137   0.10500   1.000
    O636    O    0.29985   0.94841   0.10981   1.000
    O637    O    0.44950   0.25771   0.11622   1.000
    O638    O    0.99701   0.72716   0.09848   1.000
    O639    O    0.95209   0.71663   0.10655   1.000
    O640    O    0.36393   0.10360   0.09848   1.000
    O641    O    0.39809   0.15745   0.11873   1.000
    O642    O    0.35279   0.04952   0.11358   1.000
    O643    O    0.04003   0.76233   0.10990   1.000
    O644    O    0.34677   0.73015   0.11068   1.000
    O645    O    0.38205   0.72096   0.11989   1.000
    O646    O    0.33782   0.76559   0.12020   1.000
    O647    O    0.79561   0.59011   0.11453   1.000
    O648    O    0.83988   0.61445   0.12793   1.000
    O649    O    0.75278   0.57156   0.13073   1.000
    O650    O    0.58703   0.48601   0.13148   1.000
    O651    O    0.44779   0.92455   0.15241   1.000
    O652    O    0.52414   0.49033   0.13472   1.000
    O653    O    0.42929   0.60578   0.12523   1.000
    O654    O    0.41324   0.63433   0.13844   1.000
    O655    O    0.01749   0.54016   0.13435   1.000
    O656    O    0.01091   0.48645   0.14569   1.000
    O657    O    0.34371   0.99771   0.12667   1.000
    O658    O    0.33194   0.95219   0.13529   1.000
    O659    O    0.45696   0.58920   0.14009   1.000
    O660    O    0.01873   0.58250   0.13564   1.000
    O661    O    0.37902   0.04121   0.13848   1.000
    O662    O    0.52500   0.42028   0.13804   1.000
    O663    O    0.42914   0.20879   0.13893   1.000
    O664    O    0.45445   0.25379   0.15263   1.000
    O665    O    0.41094   0.16515   0.15460   1.000
    O666    O    0.00000   0.55693   0.16667   1.000
    O667    O    0.55222   0.47676   0.18092   1.000
    O668    O    0.58906   0.75421   0.17873   1.000
    O669    O    0.54555   0.79934   0.18070   1.000
    O670    O    0.98908   0.47554   0.18764   1.000
    O671    O    0.54304   0.13225   0.19324   1.000
    O672    O    0.58677   0.22109   0.19489   1.000
    O673    O    0.62099   0.66220   0.19486   1.000
    O674    O    0.47500   0.89527   0.19530   1.000
    O675    O    0.47587   0.96619   0.19862   1.000
    O676    O    0.41297   0.89898   0.20186   1.000
    O677    O    0.24723   0.81878   0.20262   1.000
    O678    O    0.66806   0.62026   0.19804   1.000
    O679    O    0.98128   0.56378   0.19769   1.000
    O680    O    0.98251   0.52267   0.19898   1.000
    O681    O    0.16012   0.77457   0.20542   1.000
    O682    O    0.57086   0.77965   0.19440   1.000
    O683    O    0.60191   0.75936   0.21460   1.000
    O684    O    0.55050   0.80821   0.21711   1.000
    O685    O    0.50288   0.86339   0.22274   1.000
    O686    O    0.66219   0.42778   0.21313   1.000
    O687    O    0.61795   0.33891   0.21345   1.000
    O688    O    0.65629   0.65400   0.20666   1.000
    O689    O    0.64721   0.69672   0.21976   1.000
    O690    O    0.57071   0.17649   0.20810   1.000
    O691    O    0.55417   0.12579   0.22871   1.000
    O692    O    0.70015   0.64856   0.22352   1.000
    O693    O    0.96685   0.48059   0.23392   1.000
    O694    O    0.60481   0.22723   0.22936   1.000
    O695    O    0.50681   0.02365   0.22991   1.000
    O696    O    0.95998   0.72230   0.22344   1.000
    O697    O    0.53582   0.47718   0.22834   1.000
    O698    O    0.35762   0.86710   0.23703   1.000
    O699    O    0.04791   0.76455   0.22679   1.000
    O700    O    0.20439   0.79451   0.21881   1.000
    O701    O    0.25514   0.81545   0.23931   1.000
    O702    O    0.15562   0.76697   0.24220   1.000
    O703    O    0.65324   0.38339   0.22265   1.000
    O704    O    0.69769   0.43393   0.23625   1.000
    O705    O    0.64724   0.33284   0.23637   1.000
    O706    O    0.48515   0.44465   0.23353   1.000
    O707    O    0.00298   0.73015   0.23486   1.000
    O708    O    0.95130   0.68661   0.24726   1.000
    O709    O    0.63608   0.73967   0.23485   1.000
    O710    O    0.68291   0.73482   0.24901   1.000
    O711    O    0.61135   0.76697   0.25781   1.000
    O712    O    0.05191   0.73482   0.25099   1.000
    O713    O    0.52955   0.83913   0.24066   1.000
    O714    O    0.56031   0.81545   0.26070   1.000
    O715    O    0.74392   0.64127   0.24164   1.000
    O716    O    0.73532   0.68661   0.25275   1.000
    O717    O    0.51375   0.48059   0.26608   1.000
    O718    O    0.70619   0.54556   0.24269   1.000
    O719    O    0.50948   0.86710   0.26298   1.000
    O720    O    0.74498   0.59018   0.24431   1.000
    O721    O    0.79490   0.64004   0.24707   1.000
    O722    O    0.74491   0.53980   0.24721   1.000
    O723    O    0.53633   0.07265   0.24997   1.000
    O724    O    0.57163   0.12579   0.27126   1.000
    O725    O    0.74347   0.48695   0.24997   1.000
    O726    O    0.79489   0.53980   0.25276   1.000
    O727    O    0.83936   0.67872   0.24997   1.000
    O728    O    0.84514   0.64004   0.25290   1.000
    O729    O    0.64008   0.28016   0.24997   1.000
    O730    O    0.62242   0.22723   0.27061   1.000
    O731    O    0.68560   0.33284   0.26360   1.000
    O732    O    0.51685   0.02365   0.27006   1.000
    O733    O    0.73625   0.43393   0.26372   1.000
    O734    O    0.84520   0.59018   0.25569   1.000
    O735    O    0.83937   0.54556   0.25731   1.000
    O736    O    0.89736   0.64127   0.25837   1.000
    O737    O    0.30958   0.83913   0.25934   1.000
    O738    O    0.36051   0.86339   0.27727   1.000
    O739    O    0.95951   0.44465   0.26647   1.000
    O740    O    0.94136   0.47718   0.27166   1.000
    O741    O    0.94842   0.64856   0.27648   1.000
    O742    O    0.25771   0.80821   0.28289   1.000
    O743    O    0.72716   0.73015   0.26514   1.000
    O744    O    0.71664   0.76455   0.27321   1.000
    O745    O    0.10360   0.73967   0.26515   1.000
    O746    O    0.15745   0.75936   0.28540   1.000
    O747    O    0.04951   0.69672   0.28025   1.000
    O748    O    0.76233   0.72230   0.27656   1.000
    O749    O    0.73016   0.38339   0.27736   1.000
    O750    O    0.72096   0.33891   0.28656   1.000
    O751    O    0.76560   0.42778   0.28687   1.000
    O752    O    0.59011   0.79451   0.28119   1.000
    O753    O    0.61445   0.77457   0.29459   1.000
    O754    O    0.57156   0.81878   0.29739   1.000
    O755    O    0.48601   0.89898   0.29815   1.000
    O756    O    0.92455   0.47676   0.31908   1.000
    O757    O    0.49033   0.96619   0.30138   1.000
    O758    O    0.60579   0.17650   0.29190   1.000
    O759    O    0.63433   0.22109   0.30511   1.000
    O760    O    0.54016   0.52267   0.30102   1.000
    O761    O    0.48646   0.47554   0.31236   1.000
    O762    O    0.99771   0.65400   0.29334   1.000
    O763    O    0.95220   0.62026   0.30197   1.000
    O764    O    0.58921   0.13225   0.30676   1.000
    O765    O    0.58251   0.56378   0.30231   1.000
    O766    O    0.04122   0.66220   0.30514   1.000
    O767    O    0.42028   0.89527   0.30471   1.000
    O768    O    0.20879   0.77965   0.30560   1.000
    O769    O    0.25379   0.79934   0.31930   1.000
    O770    O    0.16515   0.75421   0.32127   1.000
    O771    O    0.55694   0.55693   0.33334   1.000
    O772    O    0.47677   0.92455   0.34759   1.000
    O773    O    0.75421   0.16515   0.34540   1.000
    O774    O    0.79934   0.25379   0.34737   1.000
    O775    O    0.47554   0.48646   0.35431   1.000
    O776    O    0.13225   0.58921   0.35991   1.000
    O777    O    0.22110   0.63433   0.36156   1.000
    O778    O    0.66220   0.04122   0.36153   1.000
    O779    O    0.89527   0.42028   0.36196   1.000
    O780    O    0.96620   0.49033   0.36529   1.000
    O781    O    0.89899   0.48601   0.36852   1.000
    O782    O    0.81879   0.57156   0.36928   1.000
    O783    O    0.62026   0.95219   0.36471   1.000
    O784    O    0.56378   0.58251   0.36436   1.000
    O785    O    0.52267   0.54016   0.36565   1.000
    O786    O    0.77457   0.61445   0.37208   1.000
    O787    O    0.77965   0.20879   0.36107   1.000
    O788    O    0.75936   0.15745   0.38127   1.000
    O789    O    0.80821   0.25770   0.38378   1.000
    O790    O    0.86340   0.36051   0.38940   1.000
    O791    O    0.42778   0.76560   0.37980   1.000
    O792    O    0.33891   0.72096   0.38012   1.000
    O793    O    0.65401   0.99771   0.37333   1.000
    O794    O    0.69673   0.04951   0.38643   1.000
    O795    O    0.17649   0.60579   0.37477   1.000
    O796    O    0.12579   0.57163   0.39538   1.000
    O797    O    0.64856   0.94841   0.39019   1.000
    O798    O    0.48060   0.51375   0.40059   1.000
    O799    O    0.22723   0.62242   0.39603   1.000
    O800    O    0.02366   0.51685   0.39657   1.000
    O801    O    0.72230   0.76233   0.39010   1.000
    O802    O    0.47719   0.94137   0.39500   1.000
    O803    O    0.86711   0.50948   0.40369   1.000
    O804    O    0.76455   0.71664   0.39345   1.000
    O805    O    0.79451   0.59011   0.38547   1.000
    O806    O    0.81545   0.56031   0.40596   1.000
    O807    O    0.76697   0.61135   0.40886   1.000
    O808    O    0.38339   0.73015   0.38932   1.000
    O809    O    0.43393   0.73625   0.40292   1.000
    O810    O    0.33284   0.68560   0.40303   1.000
    O811    O    0.44466   0.95950   0.40019   1.000
    O812    O    0.73015   0.72717   0.40152   1.000
    O813    O    0.68661   0.73531   0.41391   1.000
    O814    O    0.73967   0.10360   0.40152   1.000
    O815    O    0.73482   0.05191   0.41568   1.000
    O816    O    0.76697   0.15562   0.42447   1.000
    O817    O    0.73482   0.68291   0.41765   1.000
    O818    O    0.83913   0.30958   0.40733   1.000
    O819    O    0.81545   0.25514   0.42737   1.000
    O820    O    0.64127   0.89735   0.40831   1.000
    O821    O    0.68661   0.95129   0.41942   1.000
    O822    O    0.48060   0.96685   0.43275   1.000
    O823    O    0.54555   0.83936   0.40936   1.000
    O824    O    0.86710   0.35762   0.42965   1.000
    O825    O    0.59018   0.84520   0.41098   1.000
    O826    O    0.64004   0.84514   0.41374   1.000
    O827    O    0.53980   0.79489   0.41388   1.000
    O828    O    0.67872   0.83936   0.41663   1.000
    O829    O    0.64004   0.79489   0.41956   1.000
    O830    O    0.07265   0.53632   0.41663   1.000
    O831    O    0.02366   0.50680   0.43673   1.000
    O832    O    0.28016   0.64008   0.41663   1.000
    O833    O    0.22723   0.60480   0.43727   1.000
    O834    O    0.12579   0.55416   0.43792   1.000
    O835    O    0.33284   0.64724   0.43027   1.000
    O836    O    0.48695   0.74347   0.41663   1.000
    O837    O    0.53980   0.74491   0.41942   1.000
    O838    O    0.43393   0.69768   0.43038   1.000
    O839    O    0.59018   0.74497   0.42235   1.000
    O840    O    0.54556   0.70619   0.42397   1.000
    O841    O    0.64127   0.74392   0.42502   1.000
    O842    O    0.83913   0.52955   0.42600   1.000
    O843    O    0.86339   0.50288   0.44393   1.000
    O844    O    0.44466   0.48515   0.43314   1.000
    O845    O    0.47719   0.53582   0.43833   1.000
    O846    O    0.64856   0.70014   0.44314   1.000
    O847    O    0.80820   0.55050   0.44955   1.000
    O848    O    0.73015   0.00298   0.43181   1.000
    O849    O    0.76454   0.04791   0.43988   1.000
    O850    O    0.73967   0.63607   0.43181   1.000
    O851    O    0.75936   0.60191   0.45206   1.000
    O852    O    0.69672   0.64721   0.44691   1.000
    O853    O    0.72230   0.95997   0.44323   1.000
    O854    O    0.38339   0.65323   0.44402   1.000
    O855    O    0.33891   0.61795   0.45322   1.000
    O856    O    0.42778   0.66218   0.45353   1.000
    O857    O    0.79450   0.20439   0.44786   1.000
    O858    O    0.77457   0.16012   0.46126   1.000
    O859    O    0.81878   0.24722   0.46406   1.000
    O860    O    0.89899   0.41297   0.46481   1.000
    O861    O    0.47677   0.55221   0.48575   1.000
    O862    O    0.96620   0.47586   0.46805   1.000
    O863    O    0.17650   0.57071   0.45856   1.000
    O864    O    0.22110   0.58676   0.47177   1.000
    O865    O    0.52267   0.98251   0.46768   1.000
    O866    O    0.47554   0.98908   0.47901   1.000
    O867    O    0.65401   0.65629   0.46000   1.000
    O868    O    0.62026   0.66806   0.46863   1.000
    O869    O    0.13225   0.54304   0.47342   1.000
    O870    O    0.56378   0.98127   0.46897   1.000
    O871    O    0.66220   0.62098   0.47181   1.000
    O872    O    0.89527   0.47500   0.47137   1.000
    O873    O    0.77965   0.57086   0.47226   1.000
    O874    O    0.79934   0.54555   0.48596   1.000
    O875    O    0.75421   0.58906   0.48793   1.000
    O876    O    0.55693   0.00000   0.50000   1.000
    O877    O    0.92455   0.44778   0.51425   1.000
    O878    O    0.16515   0.41094   0.51207   1.000
    O879    O    0.25379   0.45445   0.51404   1.000
    O880    O    0.48646   0.01091   0.52096   1.000
    O881    O    0.58921   0.45695   0.52658   1.000
    O882    O    0.63433   0.41324   0.52823   1.000
    O883    O    0.04122   0.37902   0.52820   1.000
    O884    O    0.42028   0.52500   0.52863   1.000
    O885    O    0.49033   0.52413   0.53196   1.000
    O886    O    0.48602   0.58703   0.53519   1.000
    O887    O    0.57156   0.75277   0.53595   1.000
    O888    O    0.95220   0.33194   0.53138   1.000
    O889    O    0.58251   0.01872   0.53103   1.000
    O890    O    0.54016   0.01749   0.53232   1.000
    O891    O    0.61445   0.83988   0.53875   1.000
    O892    O    0.20879   0.42914   0.52774   1.000
    O893    O    0.15745   0.39809   0.54794   1.000
    O894    O    0.25771   0.44950   0.55045   1.000
    O895    O    0.36052   0.49712   0.55607   1.000
    O896    O    0.76560   0.33781   0.54647   1.000
    O897    O    0.72096   0.38205   0.54679   1.000
    O898    O    0.99771   0.34370   0.54000   1.000
    O899    O    0.04952   0.35279   0.55310   1.000
    O900    O    0.60579   0.42929   0.54144   1.000
    O901    O    0.57163   0.44583   0.56205   1.000
    O902    O    0.94841   0.29986   0.55686   1.000
    O903    O    0.51375   0.03315   0.56726   1.000
    O904    O    0.62242   0.39520   0.56270   1.000
    O905    O    0.51685   0.49319   0.56324   1.000
    O906    O    0.76233   0.04002   0.55677   1.000
    O907    O    0.94136   0.46418   0.56167   1.000
    O908    O    0.50948   0.64237   0.57036   1.000
    O909    O    0.71663   0.95209   0.56012   1.000
    O910    O    0.59011   0.79560   0.55214   1.000
    O911    O    0.56031   0.74486   0.57264   1.000
    O912    O    0.61135   0.84438   0.57553   1.000
    O913    O    0.73016   0.34676   0.55599   1.000
    O914    O    0.73625   0.30232   0.56959   1.000
    O915    O    0.68560   0.35276   0.56970   1.000
    O916    O    0.95951   0.51485   0.56686   1.000
    O917    O    0.72716   0.99701   0.56819   1.000
    O918    O    0.73531   0.04870   0.58059   1.000
    O919    O    0.10360   0.36392   0.56819   1.000
    O920    O    0.05191   0.31709   0.58235   1.000
    O921    O    0.15562   0.38865   0.59115   1.000
    O922    O    0.68291   0.94809   0.58432   1.000
    O923    O    0.30959   0.47045   0.57400   1.000
    O924    O    0.25514   0.43969   0.59404   1.000
    O925    O    0.89735   0.25608   0.57498   1.000
    O926    O    0.95129   0.26468   0.58609   1.000
    O927    O    0.96685   0.48625   0.59942   1.000
    O928    O    0.83937   0.29381   0.57603   1.000
    O929    O    0.35763   0.49052   0.59632   1.000
    O930    O    0.84520   0.25503   0.57765   1.000
    O931    O    0.84515   0.20510   0.58041   1.000
    O932    O    0.79489   0.25509   0.58055   1.000
    O933    O    0.83936   0.16064   0.58330   1.000
    O934    O    0.79490   0.15485   0.58623   1.000
    O935    O    0.53633   0.46368   0.58330   1.000
    O936    O    0.55416   0.42838   0.60459   1.000
    O937    O    0.74347   0.25653   0.58330   1.000
    O938    O    0.74492   0.20511   0.58609   1.000
    O939    O    0.64008   0.35992   0.58330   1.000
    O940    O    0.60481   0.37758   0.60394   1.000
    O941    O    0.64724   0.31440   0.59693   1.000
    O942    O    0.69768   0.26376   0.59705   1.000
    O943    O    0.50680   0.48315   0.60340   1.000
    O944    O    0.74498   0.15480   0.58902   1.000
    O945    O    0.70619   0.16063   0.59064   1.000
    O946    O    0.74392   0.10265   0.59170   1.000
    O947    O    0.52955   0.69041   0.59267   1.000
    O948    O    0.50288   0.63948   0.61060   1.000
    O949    O    0.48515   0.04049   0.59981   1.000
    O950    O    0.53582   0.05863   0.60500   1.000
    O951    O    0.70014   0.05159   0.60981   1.000
    O952    O    0.55050   0.74229   0.61622   1.000
    O953    O    0.00298   0.27283   0.59848   1.000
    O954    O    0.04791   0.28336   0.60655   1.000
    O955    O    0.63608   0.89640   0.59848   1.000
    O956    O    0.60191   0.84255   0.61873   1.000
    O957    O    0.64721   0.95048   0.61358   1.000
    O958    O    0.95997   0.23767   0.60990   1.000
    O959    O    0.65324   0.26984   0.61069   1.000
    O960    O    0.61795   0.27904   0.61989   1.000
    O961    O    0.66218   0.23440   0.62020   1.000
    O962    O    0.20440   0.40989   0.61453   1.000
    O963    O    0.16012   0.38555   0.62793   1.000
    O964    O    0.24723   0.42844   0.63073   1.000
    O965    O    0.41297   0.51398   0.63148   1.000
    O966    O    0.55222   0.07545   0.65242   1.000
    O967    O    0.47586   0.50967   0.63472   1.000
    O968    O    0.57071   0.39421   0.62523   1.000
    O969    O    0.58677   0.36567   0.63844   1.000
    O970    O    0.98251   0.45984   0.63435   1.000
    O971    O    0.98909   0.51355   0.64569   1.000
    O972    O    0.65629   0.00229   0.62667   1.000
    O973    O    0.66806   0.04780   0.63530   1.000
    O974    O    0.54304   0.41079   0.64009   1.000
    O975    O    0.98128   0.41749   0.63564   1.000
    O976    O    0.62099   0.95878   0.63848   1.000
    O977    O    0.47500   0.57972   0.63804   1.000
    O978    O    0.57086   0.79121   0.63893   1.000
    O979    O    0.54555   0.74621   0.65263   1.000
    O980    O    0.58906   0.83485   0.65460   1.000
    O981    O    0.00000   0.44306   0.66667   1.000
    O982    O    0.44778   0.52323   0.68092   1.000
    O983    O    0.41094   0.24579   0.67873   1.000
    O984    O    0.45445   0.20066   0.68070   1.000
    O985    O    0.01091   0.52446   0.68764   1.000
    O986    O    0.45696   0.86775   0.69324   1.000
    O987    O    0.41324   0.77890   0.69489   1.000
    O988    O    0.37901   0.33780   0.69486   1.000
    O989    O    0.52501   0.10472   0.69529   1.000
    O990    O    0.52414   0.03381   0.69862   1.000
    O991    O    0.58703   0.10101   0.70185   1.000
    O992    O    0.75278   0.18121   0.70261   1.000
    O993    O    0.33194   0.37974   0.69804   1.000
    O994    O    0.01872   0.43622   0.69769   1.000
    O995    O    0.01749   0.47733   0.69898   1.000
    O996    O    0.83988   0.22543   0.70542   1.000
    O997    O    0.42914   0.22035   0.69440   1.000
    O998    O    0.39809   0.24064   0.71460   1.000
    O999    O    0.44950   0.19179   0.71711   1.000
    O1000   O    0.49712   0.13660   0.72274   1.000
    O1001   O    0.33781   0.57222   0.71313   1.000
    O1002   O    0.38205   0.66109   0.71344   1.000
    O1003   O    0.34370   0.34599   0.70666   1.000
    O1004   O    0.35279   0.30327   0.71976   1.000
    O1005   O    0.42929   0.82351   0.70810   1.000
    O1006   O    0.44584   0.87421   0.72871   1.000
    O1007   O    0.29985   0.35144   0.72352   1.000
    O1008   O    0.03315   0.51940   0.73392   1.000
    O1009   O    0.39520   0.77277   0.72936   1.000
    O1010   O    0.49320   0.97635   0.72991   1.000
    O1011   O    0.04003   0.27769   0.72344   1.000
    O1012   O    0.46418   0.52281   0.72834   1.000
    O1013   O    0.64237   0.13289   0.73703   1.000
    O1014   O    0.95209   0.23545   0.72679   1.000
    O1015   O    0.79561   0.20549   0.71881   1.000
    O1016   O    0.74486   0.18455   0.73931   1.000
    O1017   O    0.84438   0.23303   0.74220   1.000
    O1018   O    0.34677   0.61661   0.72264   1.000
    O1019   O    0.30231   0.56607   0.73625   1.000
    O1020   O    0.35276   0.66716   0.73637   1.000
    O1021   O    0.51485   0.55534   0.73353   1.000
    O1022   O    0.99701   0.26985   0.73486   1.000
    O1023   O    0.04871   0.31339   0.74726   1.000
    O1024   O    0.36392   0.26032   0.73485   1.000
    O1025   O    0.31709   0.26518   0.74901   1.000
    O1026   O    0.38865   0.23303   0.75780   1.000
    O1027   O    0.94809   0.26518   0.75099   1.000
    O1028   O    0.47045   0.16086   0.74066   1.000
    O1029   O    0.43969   0.18455   0.76070   1.000
    O1030   O    0.25608   0.35872   0.74164   1.000
    O1031   O    0.26469   0.31339   0.75274   1.000
    O1032   O    0.48625   0.51940   0.76609   1.000
    O1033   O    0.29381   0.45444   0.74269   1.000
    O1034   O    0.49052   0.13289   0.76298   1.000
    O1035   O    0.25503   0.40982   0.74431   1.000
    O1036   O    0.20511   0.35996   0.74707   1.000
    O1037   O    0.25508   0.46019   0.74721   1.000
    O1038   O    0.35992   0.71984   0.74997   1.000
    O1039   O    0.31440   0.66716   0.76361   1.000
    O1040   O    0.46368   0.92735   0.74997   1.000
    O1041   O    0.48315   0.97635   0.77006   1.000
    O1042   O    0.37758   0.77277   0.77061   1.000
    O1043   O    0.42838   0.87421   0.77126   1.000
    O1044   O    0.16064   0.32128   0.74997   1.000
    O1045   O    0.15485   0.35996   0.75290   1.000
    O1046   O    0.25653   0.51305   0.74997   1.000
    O1047   O    0.26375   0.56607   0.76372   1.000
    O1048   O    0.20511   0.46019   0.75276   1.000
    O1049   O    0.15480   0.40982   0.75569   1.000
    O1050   O    0.16064   0.45444   0.75731   1.000
    O1051   O    0.10265   0.35872   0.75837   1.000
    O1052   O    0.69041   0.16086   0.75934   1.000
    O1053   O    0.63949   0.13660   0.77727   1.000
    O1054   O    0.04049   0.55534   0.76647   1.000
    O1055   O    0.05864   0.52281   0.77166   1.000
    O1056   O    0.05159   0.35144   0.77648   1.000
    O1057   O    0.74230   0.19179   0.78289   1.000
    O1058   O    0.27283   0.26985   0.76514   1.000
    O1059   O    0.28337   0.23545   0.77321   1.000
    O1060   O    0.89640   0.26032   0.76515   1.000
    O1061   O    0.84255   0.24064   0.78540   1.000
    O1062   O    0.95048   0.30327   0.78024   1.000
    O1063   O    0.23767   0.27769   0.77656   1.000
    O1064   O    0.26985   0.61661   0.77736   1.000
    O1065   O    0.27904   0.66109   0.78656   1.000
    O1066   O    0.23440   0.57222   0.78687   1.000
    O1067   O    0.40989   0.20550   0.78119   1.000
    O1068   O    0.38555   0.22543   0.79459   1.000
    O1069   O    0.42844   0.18121   0.79739   1.000
    O1070   O    0.51399   0.10101   0.79815   1.000
    O1071   O    0.07545   0.52323   0.81908   1.000
    O1072   O    0.50967   0.03381   0.80138   1.000
    O1073   O    0.39422   0.82351   0.79190   1.000
    O1074   O    0.36567   0.77890   0.80511   1.000
    O1075   O    0.45984   0.47733   0.80102   1.000
    O1076   O    0.51355   0.52446   0.81236   1.000
    O1077   O    0.00229   0.34599   0.79334   1.000
    O1078   O    0.04781   0.37974   0.80197   1.000
    O1079   O    0.41080   0.86775   0.80676   1.000
    O1080   O    0.41749   0.43622   0.80231   1.000
    O1081   O    0.95878   0.33780   0.80515   1.000
    O1082   O    0.57972   0.10472   0.80471   1.000
    O1083   O    0.79121   0.22035   0.80560   1.000
    O1084   O    0.74621   0.20066   0.81930   1.000
    O1085   O    0.83485   0.24579   0.82127   1.000
    O1086   O    0.44306   0.44306   0.83334   1.000
    O1087   O    0.52324   0.07545   0.84759   1.000
    O1088   O    0.24579   0.83485   0.84540   1.000
    O1089   O    0.20066   0.74621   0.84737   1.000
    O1090   O    0.52446   0.51355   0.85431   1.000
    O1091   O    0.86775   0.41079   0.85991   1.000
    O1092   O    0.77891   0.36567   0.86156   1.000
    O1093   O    0.33780   0.95878   0.86153   1.000
    O1094   O    0.10472   0.57972   0.86196   1.000
    O1095   O    0.03381   0.50967   0.86529   1.000
    O1096   O    0.10102   0.51398   0.86852   1.000
    O1097   O    0.18121   0.42844   0.86928   1.000
    O1098   O    0.37974   0.04780   0.86471   1.000
    O1099   O    0.43622   0.41749   0.86436   1.000
    O1100   O    0.47733   0.45984   0.86565   1.000
    O1101   O    0.22543   0.38555   0.87208   1.000
    O1102   O    0.22035   0.79121   0.86107   1.000
    O1103   O    0.24064   0.84255   0.88127   1.000
    O1104   O    0.19180   0.74229   0.88378   1.000
    O1105   O    0.13661   0.63948   0.88940   1.000
    O1106   O    0.57222   0.23440   0.87980   1.000
    O1107   O    0.66109   0.27904   0.88012   1.000
    O1108   O    0.34599   0.00229   0.87333   1.000
    O1109   O    0.30328   0.95049   0.88643   1.000
    O1110   O    0.82351   0.39421   0.87477   1.000
    O1111   O    0.87421   0.42837   0.89537   1.000
    O1112   O    0.35144   0.05158   0.89019   1.000
    O1113   O    0.51941   0.48625   0.90059   1.000
    O1114   O    0.77277   0.37758   0.89602   1.000
    O1115   O    0.97634   0.48315   0.89657   1.000
    O1116   O    0.27770   0.23767   0.89010   1.000
    O1117   O    0.52281   0.05863   0.89500   1.000
    O1118   O    0.13289   0.49052   0.90369   1.000
    O1119   O    0.23546   0.28336   0.89345   1.000
    O1120   O    0.20550   0.40989   0.88547   1.000
    O1121   O    0.18455   0.43969   0.90597   1.000
    O1122   O    0.23303   0.38865   0.90886   1.000
    O1123   O    0.61661   0.26985   0.88932   1.000
    O1124   O    0.56607   0.26376   0.90292   1.000
    O1125   O    0.66716   0.31440   0.90303   1.000
    O1126   O    0.55535   0.04049   0.90019   1.000
    O1127   O    0.26985   0.27283   0.90152   1.000
    O1128   O    0.31339   0.26469   0.91392   1.000
    O1129   O    0.26033   0.89640   0.90152   1.000
    O1130   O    0.26518   0.94809   0.91568   1.000
    O1131   O    0.23303   0.84438   0.92448   1.000
    O1132   O    0.26518   0.31709   0.91765   1.000
    O1133   O    0.16087   0.69041   0.90733   1.000
    O1134   O    0.18455   0.74486   0.92737   1.000
    O1135   O    0.35873   0.10264   0.90831   1.000
    O1136   O    0.31339   0.04871   0.91942   1.000
    O1137   O    0.51941   0.03315   0.93275   1.000
    O1138   O    0.45445   0.16063   0.90936   1.000
    O1139   O    0.13289   0.64237   0.92965   1.000
    O1140   O    0.40983   0.15480   0.91098   1.000
    O1141   O    0.35996   0.15485   0.91374   1.000
    O1142   O    0.46020   0.20511   0.91388   1.000
    O1143   O    0.51305   0.25653   0.91663   1.000
    O1144   O    0.46020   0.25509   0.91942   1.000
    O1145   O    0.56607   0.30232   0.93038   1.000
    O1146   O    0.32128   0.16064   0.91663   1.000
    O1147   O    0.35996   0.20510   0.91956   1.000
    O1148   O    0.92735   0.46367   0.91663   1.000
    O1149   O    0.87421   0.44583   0.93792   1.000
    O1150   O    0.97635   0.49319   0.93672   1.000
    O1151   O    0.71984   0.35992   0.91663   1.000
    O1152   O    0.66716   0.35276   0.93027   1.000
    O1153   O    0.77277   0.39520   0.93727   1.000
    O1154   O    0.40983   0.25502   0.92235   1.000
    O1155   O    0.45445   0.29381   0.92397   1.000
    O1156   O    0.35873   0.25608   0.92503   1.000
    O1157   O    0.16086   0.47045   0.92600   1.000
    O1158   O    0.13661   0.49712   0.94393   1.000
    O1159   O    0.55535   0.51485   0.93314   1.000
    O1160   O    0.52282   0.46418   0.93833   1.000
    O1161   O    0.35144   0.29985   0.94314   1.000
    O1162   O    0.19180   0.44950   0.94955   1.000
    O1163   O    0.26985   0.99702   0.93181   1.000
    O1164   O    0.23546   0.95209   0.93988   1.000
    O1165   O    0.26033   0.36392   0.93181   1.000
    O1166   O    0.24064   0.39809   0.95206   1.000
    O1167   O    0.30328   0.35279   0.94691   1.000
    O1168   O    0.27770   0.04002   0.94323   1.000
    O1169   O    0.61661   0.34676   0.94402   1.000
    O1170   O    0.66109   0.38205   0.95322   1.000
    O1171   O    0.57222   0.33781   0.95353   1.000
    O1172   O    0.20550   0.79561   0.94786   1.000
    O1173   O    0.22543   0.83988   0.96126   1.000
    O1174   O    0.18122   0.75278   0.96406   1.000
    O1175   O    0.10102   0.58703   0.96481   1.000
    O1176   O    0.03380   0.52414   0.96805   1.000
    O1177   O    0.82351   0.42929   0.95856   1.000
    O1178   O    0.77891   0.41323   0.97177   1.000
    O1179   O    0.47733   0.01749   0.96768   1.000
    O1180   O    0.52446   0.01091   0.97901   1.000
    O1181   O    0.34600   0.34370   0.96000   1.000
    O1182   O    0.37975   0.33194   0.96863   1.000
    O1183   O    0.86775   0.45696   0.97342   1.000
    O1184   O    0.43622   0.01873   0.96897   1.000
    O1185   O    0.33780   0.37902   0.97181   1.000
    O1186   O    0.10473   0.52501   0.97137   1.000
    O1187   O    0.22035   0.42914   0.97226   1.000
loop_
    _geom_bond_atom_site_label_1
    _geom_bond_atom_site_label_2
    _geom_bond_distance
    _geom_bond_site_symmetry_2
    _ccdc_geom_bond_type
    C336   O558      0.46544  1_554   S
    C66    O558      0.46544      .   S
    C347   O559      0.46469  1_554   S
    C77    O559      0.46469      .   S
    C466   O560      0.46533      .   S
    C270   O560      0.46533      .   S
    C455   O561      0.46531      .   S
    C249   O561      0.46531      .   S
    C373   O562      0.46452      .   S
    C125   O562      0.46452      .   S
    C546   O563      0.96830      .   S
    C482   O563      0.96830      .   S
    C546   O564      0.97367      .   S
    C483   O564      0.97367      .   S
    C546   O565      0.98830      .   S
    C481   O565      0.98830      .   S
    C546   O566      0.97646  1_554   S
    C480   O566      0.97646      .   S
    C306   O567      0.46431      .   S
    C2     O567      0.46431      .   S
    C384   O568      0.46551      .   S
    C136   O568      0.46551      .   S
    C287   O569      0.46498      .   S
    C472   O569      0.46498      .   S
    C287   O570      0.67281      .   S
    C276   O570      0.67281      .   S
    C287   O571      0.67102  1_565   S
    C294   O571      0.67102  1_556   S
    C309   O572      0.46538      .   S
    C6     O572      0.46538      .   S
    C81    O573      0.69387      .   S
    C70    O573      0.69387      .   S
    C81    O574      0.69177      .   S
    C92    O574      0.69177      .   S
    C81    O575      0.46469      .   S
    C351   O575      0.46469  1_556   S
    C70    O576      0.68306      .   S
    C48    O576      0.68306      .   S
    C70    O577      0.46544      .   S
    C340   O577      0.46544  1_556   S
    C482   O578      0.61175      .   S
    C37    O578      0.61175      .   S
    C433   O579      0.46493      .   S
    C217   O579      0.46493      .   S
    C444   O580      0.46460      .   S
    C228   O580      0.46460      .   S
    C125   O581      0.69959  1_655   S
    C136   O581      0.69959      .   S
    C125   O582      0.69190      .   S
    C114   O582      0.69190      .   S
    C270   O583      0.69597      .   S
    C249   O583      0.69597      .   S
    C270   O584      0.70952      .   S
    C24    O584      0.70952      .   S
    C136   O585      0.69095      .   S
    C147   O585      0.69095      .   S
    C276   O586      0.75256      .   S
    C298   O586      0.75256      .   S
    C276   O587      0.85531      .   S
    C544   O587      0.85531  1_546   S
    C249   O588      0.69624      .   S
    C21    O588      0.69624      .   S
    C483   O589      0.61895      .   S
    C23    O589      0.61895      .   S
    C312   O590      0.46488      .   S
    C11    O590      0.46488      .   S
    C491   O591      0.62337      .   S
    C301   O591      0.62337      .   S
    C491   O592      0.97646      .   S
    C553   O592      0.97646  1_556   S
    C481   O593      0.61496      .   S
    C0     O593      0.61496      .   S
    C313   O594      0.46550      .   S
    C12    O594      0.46550      .   S
    C2     O595      0.67896      .   S
    C6     O595      0.67896      .   S
    C2     O596      0.70451      .   S
    C1     O596      0.70451      .   S
    C6     O597      0.69302      .   S
    C5     O597      0.69302      .   S
    C217   O598      0.69732      .   S
    C228   O598      0.69732      .   S
    C217   O599      0.69187      .   S
    C17    O599      0.69187      .   S
    C228   O600      0.68871      .   S
    C20    O600      0.68871      .   S
    C535   O601      0.60492      .   S
    C301   O601      0.60492      .   S
    C11    O602      0.68927  1_565   S
    C12    O602      0.68927      .   S
    C11    O603      0.69433      .   S
    C10    O603      0.69433      .   S
    C114   O604      0.74747      .   S
    C92    O604      0.74747      .   S
    C114   O605      0.69456      .   S
    C169   O605      0.69456      .   S
    C92    O606      0.69302      .   S
    C103   O606      0.69302      .   S
    C12    O607      0.69456      .   S
    C7     O607      0.69456      .   S
    C48    O608      0.75688      .   S
    C37    O608      0.75688      .   S
    C48    O609      0.70451      .   S
    C59    O609      0.70451      .   S
    C147   O610      0.73831      .   S
    C180   O610      0.73831      .   S
    C147   O611      0.69433      .   S
    C158   O611      0.69433      .   S
    C301   O612      0.75256      .   S
    C279   O612      0.75256      .   S
    C422   O613      0.46474      .   S
    C196   O613      0.46474      .   S
    C37    O614      0.61496      .   S
    C504   O614      0.61496      .   S
    C180   O615      0.69723      .   S
    C196   O615      0.69723      .   S
    C180   O616      0.69871      .   S
    C14    O616      0.69871      .   S
    C196   O617      0.70066      .   S
    C16    O617      0.70066      .   S
    C23    O618      0.74648      .   S
    C24    O618      0.74648      .   S
    C23    O619      0.61977      .   S
    C526   O619      0.61977      .   S
    C17    O620      0.74898      .   S
    C16    O620      0.74898      .   S
    C17    O621      0.69238      .   S
    C18    O621      0.69238      .   S
    C16    O622      0.70076      .   S
    C15    O622      0.70076      .   S
    C20    O623      0.74169      .   S
    C21    O623      0.74169      .   S
    C20    O624      0.68922      .   S
    C19    O624      0.68922      .   S
    C21    O625      0.69699      .   S
    C22    O625      0.69699      .   S
    C14    O626      0.46418      .   S
    C314   O626      0.46418      .   S
    C14    O627      0.69881      .   S
    C13    O627      0.69881      .   S
    C24    O628      0.71028      .   S
    C25    O628      0.71028      .   S
    C15    O629      0.69723      .   S
    C13    O629      0.69723      .   S
    C15    O630      0.46474      .   S
    C315   O630      0.46474      .   S
    C13    O631      0.73831      .   S
    C10    O631      0.73831      .   S
    C0     O632      0.75688      .   S
    C1     O632      0.75688      .   S
    C0     O633      0.61175      .   S
    C515   O633      0.61175      .   S
    C298   O634      0.60492      .   S
    C532   O634      0.60492      .   S
    C298   O635      0.62337      .   S
    C488   O635      0.62337      .   S
    C10    O636      0.69095      .   S
    C9     O636      0.69095      .   S
    C1     O637      0.68306      .   S
    C3     O637      0.68306      .   S
    C169   O638      0.68927      .   S
    C158   O638      0.68927  1_455   S
    C169   O639      0.46550      .   S
    C406   O639      0.46550      .   S
    C5     O640      0.74747      .   S
    C7     O640      0.74747      .   S
    C5     O641      0.69177      .   S
    C4     O641      0.69177      .   S
    C7     O642      0.69190      .   S
    C8     O642      0.69190      .   S
    C158   O643      0.46488      .   S
    C395   O643      0.46488      .   S
    C19    O644      0.69732      .   S
    C18    O644      0.69732      .   S
    C19    O645      0.46460      .   S
    C317   O645      0.46460      .   S
    C18    O646      0.46493      .   S
    C316   O646      0.46493      .   S
    C103   O647      0.67896      .   S
    C59    O647      0.67896      .   S
    C103   O648      0.46538      .   S
    C362   O648      0.46538      .   S
    C59    O649      0.46431      .   S
    C329   O649      0.46431      .   S
    C504   O650      0.98830      .   S
    C555   O650      0.98830      .   S
    C488   O651      0.97633      .   S
    C550   O651      0.97633      .   S
    C526   O652      0.97367      .   S
    C555   O652      0.97367      .   S
    C22    O653      0.69597      .   S
    C25    O653      0.69597      .   S
    C22    O654      0.46531      .   S
    C318   O654      0.46531      .   S
    C279   O655      0.67281      .   S
    C290   O655      0.67281      .   S
    C279   O656      0.85501      .   S
    C542   O656      0.85501      .   S
    C9     O657      0.69959      .   S
    C8     O657      0.69959  1_545   S
    C9     O658      0.46551      .   S
    C311   O658      0.46551      .   S
    C25    O659      0.46533      .   S
    C319   O659      0.46533      .   S
    C475   O660      0.46498      .   S
    C290   O660      0.46498      .   S
    C8     O661      0.46452      .   S
    C310   O661      0.46452      .   S
    C515   O662      0.96830      .   S
    C555   O662      0.96830      .   S
    C3     O663      0.69387      .   S
    C4     O663      0.69387      .   S
    C3     O664      0.46544      .   S
    C307   O664      0.46544      .   S
    C4     O665      0.46469      .   S
    C308   O665      0.46469      .   S
    C290   O666      0.67089      .   S
    C285   O666      0.67089  1_655   S
    C555   O667      0.97646      .   S
    C493   O667      0.97646      .   S
    C350   O668      0.46469      .   S
    C80    O668      0.46469      .   S
    C339   O669      0.46544      .   S
    C69    O669      0.46544      .   S
    C542   O670      0.85498  1_455   S
    C274   O670      0.85498      .   S
    C465   O671      0.46533      .   S
    C269   O671      0.46533      .   S
    C454   O672      0.46531      .   S
    C248   O672      0.46531      .   S
    C372   O673      0.46452      .   S
    C124   O673      0.46452      .   S
    C550   O674      0.96833      .   S
    C510   O674      0.96833      .   S
    C550   O675      0.97372      .   S
    C521   O675      0.97372  1_545   S
    C550   O676      0.98835      .   S
    C499   O676      0.98835      .   S
    C324   O677      0.46431      .   S
    C54    O677      0.46431      .   S
    C383   O678      0.46551      .   S
    C135   O678      0.46551      .   S
    C285   O679      0.46498      .   S
    C470   O679      0.46498      .   S
    C285   O680      0.67281      .   S
    C274   O680      0.67281      .   S
    C357   O681      0.46538      .   S
    C98    O681      0.46538      .   S
    C80    O682      0.69387      .   S
    C69    O682      0.69387      .   S
    C80    O683      0.69177      .   S
    C91    O683      0.69177      .   S
    C69    O684      0.68306      .   S
    C47    O684      0.68306      .   S
    C510   O685      0.61164      .   S
    C36    O685      0.61164      .   S
    C432   O686      0.46493      .   S
    C216   O686      0.46493      .   S
    C443   O687      0.46460      .   S
    C227   O687      0.46460      .   S
    C124   O688      0.69959      .   S
    C135   O688      0.69959      .   S
    C124   O689      0.69190      .   S
    C113   O689      0.69190      .   S
    C269   O690      0.69597      .   S
    C248   O690      0.69597      .   S
    C269   O691      0.70962      .   S
    C260   O691      0.70962      .   S
    C135   O692      0.69095      .   S
    C146   O692      0.69095      .   S
    C274   O693      0.75256      .   S
    C296   O693      0.75256      .   S
    C248   O694      0.69634      .   S
    C239   O694      0.69634      .   S
    C521   O695      0.61895      .   S
    C255   O695      0.61895      .   S
    C390   O696      0.46488      .   S
    C153   O696      0.46488      .   S
    C493   O697      0.62337      .   S
    C303   O697      0.62337      .   S
    C499   O698      0.61496      .   S
    C32    O698      0.61496      .   S
    C401   O699      0.46550      .   S
    C164   O699      0.46550      .   S
    C54    O700      0.67896      .   S
    C98    O700      0.67896      .   S
    C54    O701      0.70451      .   S
    C43    O701      0.70451      .   S
    C98    O702      0.69302      .   S
    C87    O702      0.69302      .   S
    C216   O703      0.69732      .   S
    C227   O703      0.69732      .   S
    C216   O704      0.69195      .   S
    C207   O704      0.69195      .   S
    C227   O705      0.68878      .   S
    C234   O705      0.68878      .   S
    C537   O706      0.60492      .   S
    C303   O706      0.60492      .   S
    C153   O707      0.68927  1_655   S
    C164   O707      0.68927      .   S
    C153   O708      0.69433      .   S
    C142   O708      0.69433      .   S
    C113   O709      0.74747      .   S
    C91    O709      0.74747      .   S
    C113   O710      0.69456      .   S
    C168   O710      0.69456      .   S
    C91    O711      0.69302      .   S
    C102   O711      0.69302      .   S
    C164   O712      0.69456      .   S
    C109   O712      0.69456      .   S
    C47    O713      0.75688      .   S
    C36    O713      0.75688      .   S
    C47    O714      0.70451      .   S
    C58    O714      0.70451      .   S
    C146   O715      0.73831      .   S
    C179   O715      0.73831      .   S
    C146   O716      0.69433      .   S
    C157   O716      0.69433      .   S
    C303   O717      0.75256      .   S
    C281   O717      0.75256      .   S
    C421   O718      0.46474      .   S
    C195   O718      0.46474      .   S
    C36    O719      0.61496      .   S
    C503   O719      0.61496      .   S
    C179   O720      0.69723      .   S
    C195   O720      0.69723      .   S
    C179   O721      0.69872      .   S
    C186   O721      0.69872      .   S
    C195   O722      0.70068      .   S
    C202   O722      0.70068      .   S
    C260   O723      0.74648      .   S
    C255   O723      0.74648      .   S
    C260   O724      0.71028      .   S
    C265   O724      0.71028      .   S
    C202   O725      0.74898      .   S
    C207   O725      0.74898      .   S
    C202   O726      0.70076      .   S
    C191   O726      0.70076      .   S
    C186   O727      0.46418      .   S
    C412   O727      0.46418      .   S
    C186   O728      0.69881      .   S
    C175   O728      0.69881      .   S
    C239   O729      0.74169      .   S
    C234   O729      0.74169      .   S
    C239   O730      0.69699      .   S
    C244   O730      0.69699      .   S
    C234   O731      0.68922      .   S
    C223   O731      0.68922      .   S
    C255   O732      0.61965      .   S
    C525   O732      0.61965      .   S
    C207   O733      0.69238      .   S
    C212   O733      0.69238      .   S
    C191   O734      0.69723      .   S
    C175   O734      0.69723      .   S
    C191   O735      0.46474      .   S
    C417   O735      0.46474      .   S
    C175   O736      0.73831      .   S
    C142   O736      0.73831      .   S
    C32    O737      0.75688      .   S
    C43    O737      0.75688      .   S
    C32    O738      0.61164      .   S
    C514   O738      0.61164      .   S
    C296   O739      0.60492      .   S
    C530   O739      0.60492      .   S
    C296   O740      0.62337      .   S
    C486   O740      0.62337      .   S
    C142   O741      0.69095      .   S
    C131   O741      0.69095      .   S
    C43    O742      0.68306      .   S
    C65    O742      0.68306      .   S
    C168   O743      0.68927      .   S
    C157   O743      0.68927      .   S
    C168   O744      0.46550      .   S
    C405   O744      0.46550      .   S
    C87    O745      0.74747      .   S
    C109   O745      0.74747      .   S
    C87    O746      0.69177      .   S
    C76    O746      0.69177      .   S
    C109   O747      0.69190      .   S
    C120   O747      0.69190      .   S
    C157   O748      0.46488      .   S
    C394   O748      0.46488      .   S
    C223   O749      0.69732      .   S
    C212   O749      0.69732      .   S
    C223   O750      0.46460      .   S
    C439   O750      0.46460      .   S
    C212   O751      0.46493      .   S
    C428   O751      0.46493      .   S
    C102   O752      0.67896      .   S
    C58    O752      0.67896      .   S
    C102   O753      0.46538      .   S
    C361   O753      0.46538      .   S
    C58    O754      0.46431      .   S
    C328   O754      0.46431      .   S
    C503   O755      0.98835      .   S
    C554   O755      0.98835      .   S
    C486   O756      0.97646      .   S
    C548   O756      0.97646      .   S
    C525   O757      0.97372  1_545   S
    C554   O757      0.97372      .   S
    C244   O758      0.69597      .   S
    C265   O758      0.69597      .   S
    C244   O759      0.46531      .   S
    C450   O759      0.46531      .   S
    C281   O760      0.67281      .   S
    C292   O760      0.67281      .   S
    C281   O761      0.85498      .   S
    C543   O761      0.85498      .   S
    C131   O762      0.69959      .   S
    C120   O762      0.69959  1_455   S
    C131   O763      0.46551      .   S
    C379   O763      0.46551      .   S
    C265   O764      0.46533      .   S
    C461   O764      0.46533      .   S
    C477   O765      0.46498      .   S
    C292   O765      0.46498      .   S
    C120   O766      0.46452      .   S
    C368   O766      0.46452      .   S
    C514   O767      0.96833      .   S
    C554   O767      0.96833      .   S
    C65    O768      0.69387      .   S
    C76    O768      0.69387      .   S
    C65    O769      0.46544      .   S
    C335   O769      0.46544      .   S
    C76    O770      0.46469      .   S
    C346   O770      0.46469      .   S
    C292   O771      0.67089      .   S
    C286   O771      0.67089      .   S
    C554   O772      0.97633      .   S
    C492   O772      0.97633      .   S
    C352   O773      0.46469      .   S
    C82    O773      0.46469      .   S
    C341   O774      0.46544      .   S
    C71    O774      0.46544      .   S
    C543   O775      0.85501      .   S
    C275   O775      0.85501      .   S
    C467   O776      0.46533      .   S
    C271   O776      0.46533      .   S
    C456   O777      0.46531      .   S
    C250   O777      0.46531      .   S
    C374   O778      0.46452      .   S
    C126   O778      0.46452      .   S
    C548   O779      0.96830      .   S
    C508   O779      0.96830      .   S
    C548   O780      0.97367      .   S
    C519   O780      0.97367  1_455   S
    C548   O781      0.98830      .   S
    C497   O781      0.98830      .   S
    C322   O782      0.46431      .   S
    C52    O782      0.46431      .   S
    C385   O783      0.46551      .   S
    C137   O783      0.46551      .   S
    C286   O784      0.46498      .   S
    C471   O784      0.46498      .   S
    C286   O785      0.67281      .   S
    C275   O785      0.67281      .   S
    C355   O786      0.46538      .   S
    C96    O786      0.46538      .   S
    C82    O787      0.69387      .   S
    C71    O787      0.69387      .   S
    C82    O788      0.69177      .   S
    C93    O788      0.69177      .   S
    C71    O789      0.68306      .   S
    C49    O789      0.68306      .   S
    C508   O790      0.61175      .   S
    C38    O790      0.61175      .   S
    C434   O791      0.46493      .   S
    C218   O791      0.46493      .   S
    C445   O792      0.46460      .   S
    C229   O792      0.46460      .   S
    C126   O793      0.69959  1_545   S
    C137   O793      0.69959      .   S
    C126   O794      0.69190      .   S
    C115   O794      0.69190      .   S
    C271   O795      0.69597      .   S
    C250   O795      0.69597      .   S
    C271   O796      0.70952      .   S
    C258   O796      0.70952      .   S
    C137   O797      0.69095      .   S
    C148   O797      0.69095      .   S
    C275   O798      0.75256      .   S
    C297   O798      0.75256      .   S
    C250   O799      0.69624      .   S
    C237   O799      0.69624      .   S
    C519   O800      0.61895      .   S
    C253   O800      0.61895      .   S
    C388   O801      0.46488      .   S
    C151   O801      0.46488      .   S
    C492   O802      0.62337      .   S
    C302   O802      0.62337      .   S
    C497   O803      0.61496      .   S
    C30    O803      0.61496      .   S
    C399   O804      0.46550      .   S
    C162   O804      0.46550      .   S
    C52    O805      0.67896      .   S
    C96    O805      0.67896      .   S
    C52    O806      0.70451      .   S
    C41    O806      0.70451      .   S
    C96    O807      0.69302      .   S
    C85    O807      0.69302      .   S
    C218   O808      0.69732      .   S
    C229   O808      0.69732      .   S
    C218   O809      0.69187      .   S
    C205   O809      0.69187      .   S
    C229   O810      0.68871      .   S
    C232   O810      0.68871      .   S
    C536   O811      0.60492      .   S
    C302   O811      0.60492      .   S
    C151   O812      0.68927      .   S
    C162   O812      0.68927      .   S
    C151   O813      0.69433      .   S
    C140   O813      0.69433      .   S
    C115   O814      0.74747      .   S
    C93    O814      0.74747      .   S
    C115   O815      0.69456      .   S
    C170   O815      0.69456      .   S
    C93    O816      0.69302      .   S
    C104   O816      0.69302      .   S
    C162   O817      0.69456      .   S
    C107   O817      0.69456      .   S
    C49    O818      0.75688      .   S
    C38    O818      0.75688      .   S
    C49    O819      0.70451      .   S
    C60    O819      0.70451      .   S
    C148   O820      0.73831      .   S
    C181   O820      0.73831      .   S
    C148   O821      0.69433      .   S
    C159   O821      0.69433      .   S
    C302   O822      0.75256      .   S
    C280   O822      0.75256      .   S
    C423   O823      0.46474      .   S
    C197   O823      0.46474      .   S
    C38    O824      0.61496      .   S
    C505   O824      0.61496      .   S
    C181   O825      0.69723      .   S
    C197   O825      0.69723      .   S
    C181   O826      0.69871      .   S
    C184   O826      0.69871      .   S
    C197   O827      0.70066      .   S
    C200   O827      0.70066      .   S
    C184   O828      0.46418      .   S
    C410   O828      0.46418      .   S
    C184   O829      0.69881      .   S
    C173   O829      0.69881      .   S
    C253   O830      0.74648      .   S
    C258   O830      0.74648      .   S
    C253   O831      0.61977      .   S
    C527   O831      0.61977      .   S
    C237   O832      0.74169      .   S
    C232   O832      0.74169      .   S
    C237   O833      0.69699      .   S
    C242   O833      0.69699      .   S
    C258   O834      0.71028      .   S
    C263   O834      0.71028      .   S
    C232   O835      0.68922      .   S
    C221   O835      0.68922      .   S
    C200   O836      0.74898      .   S
    C205   O836      0.74898      .   S
    C200   O837      0.70076      .   S
    C189   O837      0.70076      .   S
    C205   O838      0.69238      .   S
    C210   O838      0.69238      .   S
    C189   O839      0.69723      .   S
    C173   O839      0.69723      .   S
    C189   O840      0.46474      .   S
    C415   O840      0.46474      .   S
    C173   O841      0.73831      .   S
    C140   O841      0.73831      .   S
    C30    O842      0.75688      .   S
    C41    O842      0.75688      .   S
    C30    O843      0.61175      .   S
    C516   O843      0.61175      .   S
    C297   O844      0.60492      .   S
    C531   O844      0.60492      .   S
    C297   O845      0.62337      .   S
    C487   O845      0.62337      .   S
    C140   O846      0.69095      .   S
    C129   O846      0.69095      .   S
    C41    O847      0.68306      .   S
    C63    O847      0.68306      .   S
    C170   O848      0.68927      .   S
    C159   O848      0.68927  1_565   S
    C170   O849      0.46550      .   S
    C407   O849      0.46550      .   S
    C85    O850      0.74747      .   S
    C107   O850      0.74747      .   S
    C85    O851      0.69177      .   S
    C74    O851      0.69177      .   S
    C107   O852      0.69190      .   S
    C118   O852      0.69190      .   S
    C159   O853      0.46488      .   S
    C396   O853      0.46488      .   S
    C221   O854      0.69732      .   S
    C210   O854      0.69732      .   S
    C221   O855      0.46460      .   S
    C437   O855      0.46460      .   S
    C210   O856      0.46493      .   S
    C426   O856      0.46493      .   S
    C104   O857      0.67896      .   S
    C60    O857      0.67896      .   S
    C104   O858      0.46538      .   S
    C363   O858      0.46538      .   S
    C60    O859      0.46431      .   S
    C330   O859      0.46431      .   S
    C505   O860      0.98830      .   S
    C556   O860      0.98830      .   S
    C487   O861      0.97646      .   S
    C549   O861      0.97646      .   S
    C527   O862      0.97367  1_455   S
    C556   O862      0.97367      .   S
    C242   O863      0.69597      .   S
    C263   O863      0.69597      .   S
    C242   O864      0.46531      .   S
    C448   O864      0.46531      .   S
    C280   O865      0.67281      .   S
    C291   O865      0.67281      .   S
    C280   O866      0.85477      .   S
    C541   O866      0.85477  1_545   S
    C129   O867      0.69959      .   S
    C118   O867      0.69959      .   S
    C129   O868      0.46551      .   S
    C377   O868      0.46551      .   S
    C263   O869      0.46533      .   S
    C459   O869      0.46533      .   S
    C476   O870      0.46498      .   S
    C291   O870      0.46498      .   S
    C118   O871      0.46452      .   S
    C366   O871      0.46452      .   S
    C516   O872      0.96830      .   S
    C556   O872      0.96830      .   S
    C63    O873      0.69387      .   S
    C74    O873      0.69387      .   S
    C63    O874      0.46544      .   S
    C333   O874      0.46544      .   S
    C74    O875      0.46469      .   S
    C344   O875      0.46469      .   S
    C291   O876      0.67102  1_565   S
    C284   O876      0.67102      .   S
    C556   O877      0.97646      .   S
    C494   O877      0.97646      .   S
    C348   O878      0.46469      .   S
    C78    O878      0.46469      .   S
    C337   O879      0.46544      .   S
    C67    O879      0.46544      .   S
    C541   O880      0.85531      .   S
    C273   O880      0.85531      .   S
    C463   O881      0.46533      .   S
    C267   O881      0.46533      .   S
    C452   O882      0.46531      .   S
    C246   O882      0.46531      .   S
    C370   O883      0.46452      .   S
    C122   O883      0.46452      .   S
    C549   O884      0.96830      .   S
    C509   O884      0.96830      .   S
    C549   O885      0.97367      .   S
    C520   O885      0.97367      .   S
    C549   O886      0.98830      .   S
    C498   O886      0.98830      .   S
    C323   O887      0.46431      .   S
    C53    O887      0.46431      .   S
    C381   O888      0.46551      .   S
    C133   O888      0.46551      .   S
    C284   O889      0.46498      .   S
    C469   O889      0.46498      .   S
    C284   O890      0.67281      .   S
    C273   O890      0.67281      .   S
    C356   O891      0.46538      .   S
    C97    O891      0.46538      .   S
    C78    O892      0.69387      .   S
    C67    O892      0.69387      .   S
    C78    O893      0.69177      .   S
    C89    O893      0.69177      .   S
    C67    O894      0.68306      .   S
    C45    O894      0.68306      .   S
    C509   O895      0.61175      .   S
    C34    O895      0.61175      .   S
    C430   O896      0.46493      .   S
    C214   O896      0.46493      .   S
    C441   O897      0.46460      .   S
    C225   O897      0.46460      .   S
    C122   O898      0.69959  1_455   S
    C133   O898      0.69959      .   S
    C122   O899      0.69190      .   S
    C111   O899      0.69190      .   S
    C267   O900      0.69597      .   S
    C246   O900      0.69597      .   S
    C267   O901      0.70952      .   S
    C259   O901      0.70952      .   S
    C133   O902      0.69095      .   S
    C144   O902      0.69095      .   S
    C273   O903      0.75256      .   S
    C295   O903      0.75256      .   S
    C246   O904      0.69624      .   S
    C238   O904      0.69624      .   S
    C520   O905      0.61895      .   S
    C254   O905      0.61895      .   S
    C389   O906      0.46488      .   S
    C152   O906      0.46488      .   S
    C494   O907      0.62337      .   S
    C304   O907      0.62337      .   S
    C498   O908      0.61496      .   S
    C31    O908      0.61496      .   S
    C400   O909      0.46550      .   S
    C163   O909      0.46550      .   S
    C53    O910      0.67896      .   S
    C97    O910      0.67896      .   S
    C53    O911      0.70451      .   S
    C42    O911      0.70451      .   S
    C97    O912      0.69302      .   S
    C86    O912      0.69302      .   S
    C214   O913      0.69732      .   S
    C225   O913      0.69732      .   S
    C214   O914      0.69187      .   S
    C206   O914      0.69187      .   S
    C225   O915      0.68871      .   S
    C233   O915      0.68871      .   S
    C538   O916      0.60492      .   S
    C304   O916      0.60492      .   S
    C152   O917      0.68927  1_545   S
    C163   O917      0.68927      .   S
    C152   O918      0.69433      .   S
    C141   O918      0.69433      .   S
    C111   O919      0.74747      .   S
    C89    O919      0.74747      .   S
    C111   O920      0.69456      .   S
    C166   O920      0.69456      .   S
    C89    O921      0.69302      .   S
    C100   O921      0.69302      .   S
    C163   O922      0.69456      .   S
    C108   O922      0.69456      .   S
    C45    O923      0.75688      .   S
    C34    O923      0.75688      .   S
    C45    O924      0.70451      .   S
    C56    O924      0.70451      .   S
    C144   O925      0.73831      .   S
    C177   O925      0.73831      .   S
    C144   O926      0.69433      .   S
    C155   O926      0.69433      .   S
    C304   O927      0.75256      .   S
    C282   O927      0.75256      .   S
    C419   O928      0.46474      .   S
    C193   O928      0.46474      .   S
    C34    O929      0.61496      .   S
    C501   O929      0.61496      .   S
    C177   O930      0.69723      .   S
    C193   O930      0.69723      .   S
    C177   O931      0.69871      .   S
    C185   O931      0.69871      .   S
    C193   O932      0.70066      .   S
    C201   O932      0.70066      .   S
    C185   O933      0.46418      .   S
    C411   O933      0.46418      .   S
    C185   O934      0.69881      .   S
    C174   O934      0.69881      .   S
    C259   O935      0.74648      .   S
    C254   O935      0.74648      .   S
    C259   O936      0.71028      .   S
    C264   O936      0.71028      .   S
    C201   O937      0.74898      .   S
    C206   O937      0.74898      .   S
    C201   O938      0.70076      .   S
    C190   O938      0.70076      .   S
    C238   O939      0.74169      .   S
    C233   O939      0.74169      .   S
    C238   O940      0.69699      .   S
    C243   O940      0.69699      .   S
    C233   O941      0.68922      .   S
    C222   O941      0.68922      .   S
    C206   O942      0.69238      .   S
    C211   O942      0.69238      .   S
    C254   O943      0.61977      .   S
    C523   O943      0.61977      .   S
    C190   O944      0.69723      .   S
    C174   O944      0.69723      .   S
    C190   O945      0.46474      .   S
    C416   O945      0.46474      .   S
    C174   O946      0.73831      .   S
    C141   O946      0.73831      .   S
    C31    O947      0.75688      .   S
    C42    O947      0.75688      .   S
    C31    O948      0.61175      .   S
    C512   O948      0.61175      .   S
    C295   O949      0.60492      .   S
    C529   O949      0.60492      .   S
    C295   O950      0.62337      .   S
    C485   O950      0.62337      .   S
    C141   O951      0.69095      .   S
    C130   O951      0.69095      .   S
    C42    O952      0.68306      .   S
    C64    O952      0.68306      .   S
    C166   O953      0.68927      .   S
    C155   O953      0.68927  1_655   S
    C166   O954      0.46550      .   S
    C403   O954      0.46550      .   S
    C86    O955      0.74747      .   S
    C108   O955      0.74747      .   S
    C86    O956      0.69177      .   S
    C75    O956      0.69177      .   S
    C108   O957      0.69190      .   S
    C119   O957      0.69190      .   S
    C155   O958      0.46488      .   S
    C392   O958      0.46488      .   S
    C222   O959      0.69732      .   S
    C211   O959      0.69732      .   S
    C222   O960      0.46460      .   S
    C438   O960      0.46460      .   S
    C211   O961      0.46493      .   S
    C427   O961      0.46493      .   S
    C100   O962      0.67896      .   S
    C56    O962      0.67896      .   S
    C100   O963      0.46538      .   S
    C359   O963      0.46538      .   S
    C56    O964      0.46431      .   S
    C326   O964      0.46431      .   S
    C501   O965      0.98830      .   S
    C552   O965      0.98830      .   S
    C485   O966      0.97633      .   S
    C547   O966      0.97633      .   S
    C523   O967      0.97367      .   S
    C552   O967      0.97367      .   S
    C243   O968      0.69597      .   S
    C264   O968      0.69597      .   S
    C243   O969      0.46531      .   S
    C449   O969      0.46531      .   S
    C282   O970      0.67281      .   S
    C293   O970      0.67281      .   S
    C282   O971      0.85501      .   S
    C545   O971      0.85501  1_455   S
    C130   O972      0.69959      .   S
    C119   O972      0.69959  1_565   S
    C130   O973      0.46551      .   S
    C378   O973      0.46551      .   S
    C264   O974      0.46533      .   S
    C460   O974      0.46533      .   S
    C478   O975      0.46498      .   S
    C293   O975      0.46498      .   S
    C119   O976      0.46452      .   S
    C367   O976      0.46452      .   S
    C512   O977      0.96830      .   S
    C552   O977      0.96830      .   S
    C64    O978      0.69387      .   S
    C75    O978      0.69387      .   S
    C64    O979      0.46544      .   S
    C334   O979      0.46544      .   S
    C75    O980      0.46469      .   S
    C345   O980      0.46469      .   S
    C293   O981      0.67089  1_655   S
    C288   O981      0.67089      .   S
    C552   O982      0.97646      .   S
    C490   O982      0.97646      .   S
    C353   O983      0.46469      .   S
    C83    O983      0.46469      .   S
    C342   O984      0.46544      .   S
    C72    O984      0.46544      .   S
    C545   O985      0.85498      .   S
    C277   O985      0.85498      .   S
    C468   O986      0.46533      .   S
    C272   O986      0.46533      .   S
    C457   O987      0.46531      .   S
    C251   O987      0.46531      .   S
    C375   O988      0.46452      .   S
    C127   O988      0.46452      .   S
    C547   O989      0.96833      .   S
    C507   O989      0.96833      .   S
    C547   O990      0.97372      .   S
    C518   O990      0.97372  1_565   S
    C547   O991      0.98835      .   S
    C496   O991      0.98835      .   S
    C321   O992      0.46431      .   S
    C51    O992      0.46431      .   S
    C386   O993      0.46551      .   S
    C138   O993      0.46551      .   S
    C288   O994      0.46498      .   S
    C473   O994      0.46498      .   S
    C288   O995      0.67281      .   S
    C277   O995      0.67281      .   S
    C354   O996      0.46538      .   S
    C95    O996      0.46538      .   S
    C83    O997      0.69387      .   S
    C72    O997      0.69387      .   S
    C83    O998      0.69177      .   S
    C94    O998      0.69177      .   S
    C72    O999      0.68306      .   S
    C50    O999      0.68306      .   S
    C507   O1000     0.61164      .   S
    C39    O1000     0.61164      .   S
    C435   O1001     0.46493      .   S
    C219   O1001     0.46493      .   S
    C446   O1002     0.46460      .   S
    C230   O1002     0.46460      .   S
    C127   O1003     0.69959      .   S
    C138   O1003     0.69959      .   S
    C127   O1004     0.69190      .   S
    C116   O1004     0.69190      .   S
    C272   O1005     0.69597      .   S
    C251   O1005     0.69597      .   S
    C272   O1006     0.70962      .   S
    C257   O1006     0.70962      .   S
    C138   O1007     0.69095      .   S
    C149   O1007     0.69095      .   S
    C277   O1008     0.75256      .   S
    C299   O1008     0.75256      .   S
    C251   O1009     0.69634      .   S
    C236   O1009     0.69634      .   S
    C518   O1010     0.61895      .   S
    C252   O1010     0.61895      .   S
    C387   O1011     0.46488      .   S
    C150   O1011     0.46488      .   S
    C490   O1012     0.62337      .   S
    C300   O1012     0.62337      .   S
    C496   O1013     0.61496      .   S
    C29    O1013     0.61496      .   S
    C398   O1014     0.46550      .   S
    C161   O1014     0.46550      .   S
    C51    O1015     0.67896      .   S
    C95    O1015     0.67896      .   S
    C51    O1016     0.70451      .   S
    C40    O1016     0.70451      .   S
    C95    O1017     0.69302      .   S
    C84    O1017     0.69302      .   S
    C219   O1018     0.69732      .   S
    C230   O1018     0.69732      .   S
    C219   O1019     0.69195      .   S
    C204   O1019     0.69195      .   S
    C230   O1020     0.68878      .   S
    C231   O1020     0.68878      .   S
    C534   O1021     0.60492      .   S
    C300   O1021     0.60492      .   S
    C150   O1022     0.68927  1_455   S
    C161   O1022     0.68927      .   S
    C150   O1023     0.69433      .   S
    C139   O1023     0.69433      .   S
    C116   O1024     0.74747      .   S
    C94    O1024     0.74747      .   S
    C116   O1025     0.69456      .   S
    C171   O1025     0.69456      .   S
    C94    O1026     0.69302      .   S
    C105   O1026     0.69302      .   S
    C161   O1027     0.69456      .   S
    C106   O1027     0.69456      .   S
    C50    O1028     0.75688      .   S
    C39    O1028     0.75688      .   S
    C50    O1029     0.70451      .   S
    C61    O1029     0.70451      .   S
    C149   O1030     0.73831      .   S
    C182   O1030     0.73831      .   S
    C149   O1031     0.69433      .   S
    C160   O1031     0.69433      .   S
    C300   O1032     0.75256      .   S
    C278   O1032     0.75256      .   S
    C424   O1033     0.46474      .   S
    C198   O1033     0.46474      .   S
    C39    O1034     0.61496      .   S
    C506   O1034     0.61496      .   S
    C182   O1035     0.69723      .   S
    C198   O1035     0.69723      .   S
    C182   O1036     0.69872      .   S
    C183   O1036     0.69872      .   S
    C198   O1037     0.70068      .   S
    C199   O1037     0.70068      .   S
    C231   O1038     0.74169      .   S
    C236   O1038     0.74169      .   S
    C231   O1039     0.68922      .   S
    C220   O1039     0.68922      .   S
    C252   O1040     0.74648      .   S
    C257   O1040     0.74648      .   S
    C252   O1041     0.61965      .   S
    C528   O1041     0.61965      .   S
    C236   O1042     0.69699      .   S
    C241   O1042     0.69699      .   S
    C257   O1043     0.71028      .   S
    C262   O1043     0.71028      .   S
    C183   O1044     0.46418      .   S
    C409   O1044     0.46418      .   S
    C183   O1045     0.69881      .   S
    C172   O1045     0.69881      .   S
    C204   O1046     0.74898      .   S
    C199   O1046     0.74898      .   S
    C204   O1047     0.69238      .   S
    C209   O1047     0.69238      .   S
    C199   O1048     0.70076      .   S
    C188   O1048     0.70076      .   S
    C188   O1049     0.69723      .   S
    C172   O1049     0.69723      .   S
    C188   O1050     0.46474      .   S
    C414   O1050     0.46474      .   S
    C172   O1051     0.73831      .   S
    C139   O1051     0.73831      .   S
    C29    O1052     0.75688      .   S
    C40    O1052     0.75688      .   S
    C29    O1053     0.61164      .   S
    C517   O1053     0.61164      .   S
    C299   O1054     0.60492      .   S
    C533   O1054     0.60492      .   S
    C299   O1055     0.62337      .   S
    C489   O1055     0.62337      .   S
    C139   O1056     0.69095      .   S
    C128   O1056     0.69095      .   S
    C40    O1057     0.68306      .   S
    C62    O1057     0.68306      .   S
    C171   O1058     0.68927      .   S
    C160   O1058     0.68927      .   S
    C171   O1059     0.46550      .   S
    C408   O1059     0.46550      .   S
    C84    O1060     0.74747      .   S
    C106   O1060     0.74747      .   S
    C84    O1061     0.69177      .   S
    C73    O1061     0.69177      .   S
    C106   O1062     0.69190      .   S
    C117   O1062     0.69190      .   S
    C160   O1063     0.46488      .   S
    C397   O1063     0.46488      .   S
    C220   O1064     0.69732      .   S
    C209   O1064     0.69732      .   S
    C220   O1065     0.46460      .   S
    C436   O1065     0.46460      .   S
    C209   O1066     0.46493      .   S
    C425   O1066     0.46493      .   S
    C105   O1067     0.67896      .   S
    C61    O1067     0.67896      .   S
    C105   O1068     0.46538      .   S
    C364   O1068     0.46538      .   S
    C61    O1069     0.46431      .   S
    C331   O1069     0.46431      .   S
    C506   O1070     0.98835      .   S
    C557   O1070     0.98835      .   S
    C489   O1071     0.97646      .   S
    C551   O1071     0.97646      .   S
    C528   O1072     0.97372  1_565   S
    C557   O1072     0.97372      .   S
    C241   O1073     0.69597      .   S
    C262   O1073     0.69597      .   S
    C241   O1074     0.46531      .   S
    C447   O1074     0.46531      .   S
    C278   O1075     0.67281      .   S
    C289   O1075     0.67281      .   S
    C278   O1076     0.85498      .   S
    C540   O1076     0.85498      .   S
    C128   O1077     0.69959      .   S
    C117   O1077     0.69959  1_655   S
    C128   O1078     0.46551      .   S
    C376   O1078     0.46551      .   S
    C262   O1079     0.46533      .   S
    C458   O1079     0.46533      .   S
    C474   O1080     0.46498      .   S
    C289   O1080     0.46498      .   S
    C117   O1081     0.46452      .   S
    C365   O1081     0.46452      .   S
    C517   O1082     0.96833      .   S
    C557   O1082     0.96833      .   S
    C62    O1083     0.69387      .   S
    C73    O1083     0.69387      .   S
    C62    O1084     0.46544      .   S
    C332   O1084     0.46544      .   S
    C73    O1085     0.46469      .   S
    C343   O1085     0.46469      .   S
    C289   O1086     0.67089      .   S
    C27    O1086     0.67089      .   S
    C557   O1087     0.97633      .   S
    C495   O1087     0.97633      .   S
    C349   O1088     0.46469      .   S
    C79    O1088     0.46469      .   S
    C338   O1089     0.46544      .   S
    C68    O1089     0.46544      .   S
    C540   O1090     0.85501      .   S
    C26    O1090     0.85501      .   S
    C464   O1091     0.46533      .   S
    C268   O1091     0.46533      .   S
    C453   O1092     0.46531      .   S
    C247   O1092     0.46531      .   S
    C371   O1093     0.46452      .   S
    C123   O1093     0.46452      .   S
    C551   O1094     0.96830      .   S
    C511   O1094     0.96830      .   S
    C551   O1095     0.97367      .   S
    C522   O1095     0.97367  1_655   S
    C551   O1096     0.98830      .   S
    C500   O1096     0.98830      .   S
    C325   O1097     0.46431      .   S
    C55    O1097     0.46431      .   S
    C382   O1098     0.46551      .   S
    C134   O1098     0.46551      .   S
    C27    O1099     0.46498      .   S
    C320   O1099     0.46498      .   S
    C27    O1100     0.67281      .   S
    C26    O1100     0.67281      .   S
    C358   O1101     0.46538      .   S
    C99    O1101     0.46538      .   S
    C79    O1102     0.69387      .   S
    C68    O1102     0.69387      .   S
    C79    O1103     0.69177      .   S
    C90    O1103     0.69177      .   S
    C68    O1104     0.68306      .   S
    C46    O1104     0.68306      .   S
    C511   O1105     0.61175      .   S
    C35    O1105     0.61175      .   S
    C431   O1106     0.46493      .   S
    C215   O1106     0.46493      .   S
    C442   O1107     0.46460      .   S
    C226   O1107     0.46460      .   S
    C123   O1108     0.69959  1_565   S
    C134   O1108     0.69959      .   S
    C123   O1109     0.69190      .   S
    C112   O1109     0.69190      .   S
    C268   O1110     0.69597      .   S
    C247   O1110     0.69597      .   S
    C268   O1111     0.70952      .   S
    C261   O1111     0.70952      .   S
    C134   O1112     0.69095      .   S
    C145   O1112     0.69095      .   S
    C26    O1113     0.75256      .   S
    C28    O1113     0.75256      .   S
    C247   O1114     0.69624      .   S
    C240   O1114     0.69624      .   S
    C522   O1115     0.61895      .   S
    C256   O1115     0.61895      .   S
    C391   O1116     0.46488      .   S
    C154   O1116     0.46488      .   S
    C495   O1117     0.62337      .   S
    C305   O1117     0.62337      .   S
    C500   O1118     0.61496      .   S
    C33    O1118     0.61496      .   S
    C402   O1119     0.46550      .   S
    C165   O1119     0.46550      .   S
    C55    O1120     0.67896      .   S
    C99    O1120     0.67896      .   S
    C55    O1121     0.70451      .   S
    C44    O1121     0.70451      .   S
    C99    O1122     0.69302      .   S
    C88    O1122     0.69302      .   S
    C215   O1123     0.69732      .   S
    C226   O1123     0.69732      .   S
    C215   O1124     0.69187      .   S
    C208   O1124     0.69187      .   S
    C226   O1125     0.68871      .   S
    C235   O1125     0.68871      .   S
    C539   O1126     0.60492      .   S
    C305   O1126     0.60492      .   S
    C154   O1127     0.68927      .   S
    C165   O1127     0.68927      .   S
    C154   O1128     0.69433      .   S
    C143   O1128     0.69433      .   S
    C112   O1129     0.74747      .   S
    C90    O1129     0.74747      .   S
    C112   O1130     0.69456      .   S
    C167   O1130     0.69456      .   S
    C90    O1131     0.69302      .   S
    C101   O1131     0.69302      .   S
    C165   O1132     0.69456      .   S
    C110   O1132     0.69456      .   S
    C46    O1133     0.75688      .   S
    C35    O1133     0.75688      .   S
    C46    O1134     0.70451      .   S
    C57    O1134     0.70451      .   S
    C145   O1135     0.73831      .   S
    C178   O1135     0.73831      .   S
    C145   O1136     0.69433      .   S
    C156   O1136     0.69433      .   S
    C305   O1137     0.75256      .   S
    C283   O1137     0.75256      .   S
    C420   O1138     0.46474      .   S
    C194   O1138     0.46474      .   S
    C35    O1139     0.61496      .   S
    C502   O1139     0.61496      .   S
    C178   O1140     0.69723      .   S
    C194   O1140     0.69723      .   S
    C178   O1141     0.69871      .   S
    C187   O1141     0.69871      .   S
    C194   O1142     0.70066      .   S
    C203   O1142     0.70066      .   S
    C203   O1143     0.74898      .   S
    C208   O1143     0.74898      .   S
    C203   O1144     0.70076      .   S
    C192   O1144     0.70076      .   S
    C208   O1145     0.69238      .   S
    C213   O1145     0.69238      .   S
    C187   O1146     0.46418      .   S
    C413   O1146     0.46418      .   S
    C187   O1147     0.69881      .   S
    C176   O1147     0.69881      .   S
    C261   O1148     0.74648      .   S
    C256   O1148     0.74648      .   S
    C261   O1149     0.71028      .   S
    C266   O1149     0.71028      .   S
    C256   O1150     0.61977      .   S
    C524   O1150     0.61977      .   S
    C235   O1151     0.74169      .   S
    C240   O1151     0.74169      .   S
    C235   O1152     0.68922      .   S
    C224   O1152     0.68922      .   S
    C240   O1153     0.69699      .   S
    C245   O1153     0.69699      .   S
    C192   O1154     0.69723      .   S
    C176   O1154     0.69723      .   S
    C192   O1155     0.46474      .   S
    C418   O1155     0.46474      .   S
    C176   O1156     0.73831      .   S
    C143   O1156     0.73831      .   S
    C33    O1157     0.75688      .   S
    C44    O1157     0.75688      .   S
    C33    O1158     0.61175      .   S
    C513   O1158     0.61175      .   S
    C28    O1159     0.60492      .   S
    C484   O1159     0.60492      .   S
    C28    O1160     0.62337      .   S
    C480   O1160     0.62337      .   S
    C143   O1161     0.69095      .   S
    C132   O1161     0.69095      .   S
    C44    O1162     0.68306      .   S
    C66    O1162     0.68306      .   S
    C167   O1163     0.68927      .   S
    C156   O1163     0.68927  1_545   S
    C167   O1164     0.46550      .   S
    C404   O1164     0.46550      .   S
    C88    O1165     0.74747      .   S
    C110   O1165     0.74747      .   S
    C88    O1166     0.69177      .   S
    C77    O1166     0.69177      .   S
    C110   O1167     0.69190      .   S
    C121   O1167     0.69190      .   S
    C156   O1168     0.46488      .   S
    C393   O1168     0.46488      .   S
    C224   O1169     0.69732      .   S
    C213   O1169     0.69732      .   S
    C224   O1170     0.46460      .   S
    C440   O1170     0.46460      .   S
    C213   O1171     0.46493      .   S
    C429   O1171     0.46493      .   S
    C101   O1172     0.67896      .   S
    C57    O1172     0.67896      .   S
    C101   O1173     0.46538      .   S
    C360   O1173     0.46538      .   S
    C57    O1174     0.46431      .   S
    C327   O1174     0.46431      .   S
    C502   O1175     0.98830      .   S
    C553   O1175     0.98830      .   S
    C524   O1176     0.97367  1_655   S
    C553   O1176     0.97367      .   S
    C245   O1177     0.69597      .   S
    C266   O1177     0.69597      .   S
    C245   O1178     0.46531      .   S
    C451   O1178     0.46531      .   S
    C283   O1179     0.67281      .   S
    C294   O1179     0.67281      .   S
    C283   O1180     0.85477      .   S
    C544   O1180     0.85477      .   S
    C132   O1181     0.69959      .   S
    C121   O1181     0.69959      .   S
    C132   O1182     0.46551      .   S
    C380   O1182     0.46551      .   S
    C266   O1183     0.46533      .   S
    C462   O1183     0.46533      .   S
    C479   O1184     0.46498      .   S
    C294   O1184     0.46498      .   S
    C121   O1185     0.46452      .   S
    C369   O1185     0.46452      .   S
    C513   O1186     0.96830      .   S
    C553   O1186     0.96830      .   S
    C66    O1187     0.69387      .   S
    C77    O1187     0.69387      .   S
