data_functionalizedCrystal
_audit_creation_method	'MofGen! by Chris Wilmer'
_symmetry_space_group_name_H-M	'P1'
_symmetry_Int_Tables_number	1
_symmetry_cell_setting	triclinic
loop_
_symmetry_equiv_pos_as_xyz
  x,y,z
_cell_length_a	6.817900
_cell_length_b	15.301126
_cell_length_c	10.943624
_cell_angle_alpha	93.526548
_cell_angle_beta	108.838799
_cell_angle_gamma	104.177575
loop_
_atom_site_label
_atom_site_type_symbol
_atom_site_fract_x
_atom_site_fract_y
_atom_site_fract_z
V1	V	-4.091711	-0.124735	-0.402943
O2	O	-4.074352	0.006018	-0.394869
O3	O	-4.046281	-0.247352	-0.400576
O4	O	-4.070041	-0.122806	-0.578504
O5	O	-4.050427	-0.119390	-0.215710
V6	V	-4.571490	-0.109097	-0.380502
O7	O	-4.361181	-0.159039	-0.452171
O8	O	-4.752217	-0.074793	-0.331274
O9	O	-4.393714	0.013520	-0.382869
O10	O	-4.706246	-0.239850	-0.388576
O11	O	-4.730171	-0.114442	-0.567735
O12	O	-4.369953	-0.111026	-0.204941
C13	C	-3.891139	-0.277244	-0.394320
C14	C	-3.935460	-0.377485	-0.393554
C15	C	-3.921447	-0.118371	-0.621283
C16	C	-3.985033	-0.117605	-0.764807
C17	C	-4.139502	-0.429171	-0.399649
C18	C	-4.181137	-0.523358	-0.398937
C19	C	-4.018724	-0.565857	-0.392121
C20	C	-3.814667	-0.514165	-0.386030
C21	C	-3.773039	-0.419980	-0.386751
C22	C	-3.901445	-0.710476	-0.384525
C23	C	-3.943074	-0.804667	-0.383801
C24	C	-4.309544	-0.813854	-0.396711
C25	C	-4.267915	-0.719669	-0.397432
C26	C	-4.063859	-0.667983	-0.391338
C27	C	-3.830847	-0.112446	-0.841938
C28	C	-4.005603	-0.189024	-0.948169
C29	C	-3.923600	-0.039671	-0.914312
C30	C	-4.158986	-0.194255	-0.869161
C31	C	-4.076916	-0.044835	-0.835281
C32	C	-4.251805	-0.121434	-0.941482
C33	C	-4.212197	0.043407	-0.389122
C34	C	-4.147116	0.143647	-0.389896
C35	C	-4.181889	-0.115463	-0.162156
C36	C	-4.097541	-0.116225	-0.018630
H37	H	-4.271757	-0.394574	-0.405186
H38	H	-4.106317	0.016126	-0.786105
H39	H	-3.735289	-0.668397	-0.379573
O40	O	-3.785568	-0.846071	-0.377370
C41	C	-3.675609	-0.959271	-0.481528
C42	C	-3.854185	-0.912474	-0.488959
H43	H	-3.731002	-1.012954	-0.571749
H44	H	-3.640916	-0.993320	-0.390122
H45	H	-3.522622	-0.906128	-0.477247
H46	H	-4.007281	-0.965560	-0.493291
H47	H	-3.888692	-0.878406	-0.580351
H48	H	-4.400166	-0.685068	-0.402974
H49	H	-3.652351	-0.108749	-0.798478
O50	O	-4.277241	-0.272314	-0.845138
C51	C	-4.553994	-0.414639	-0.937055
C52	C	-4.420270	-0.326268	-0.964448
H53	H	-4.669633	-0.458294	-1.033499
H54	H	-4.650187	-0.396919	-0.875905
H55	H	-4.441029	-0.454156	-0.881468
H56	H	-4.533079	-0.286709	-1.020075
H57	H	-4.324052	-0.344051	-1.025541
H58	H	-3.824705	0.025644	-0.934869
O59	O	-4.464755	-0.125820	-0.993118
C60	C	-4.728795	-0.052567	-1.109741
C61	C	-4.487558	-0.047468	-1.051292
H62	H	-4.747311	0.010763	-1.156814
H63	H	-4.801023	-0.056287	-1.029012
H64	H	-4.816660	-0.115997	-1.186755
H65	H	-4.399513	0.015956	-0.974294
H66	H	-4.415495	-0.043799	-1.132095
H67	H	-4.347286	-0.565437	-0.403902
O68	O	-3.970660	-0.261716	-1.007023
C69	C	-3.993479	-0.342789	-1.209258
C70	C	-4.033230	-0.260445	-1.142785
H71	H	-4.044006	-0.341777	-1.319028
H72	H	-4.092208	-0.408636	-1.189858
H73	H	-3.814627	-0.338877	-1.168070
H74	H	-4.212028	-0.264268	-1.183932
H75	H	-3.934361	-0.194632	-1.162177
H76	H	-3.606892	-0.377899	-0.381793
H77	H	-3.682434	-0.548776	-0.380489
H78	H	-4.475686	-0.855939	-0.401653
