data_functionalizedCrystal
_audit_creation_method	'MofGen! by Chris Wilmer'
_symmetry_space_group_name_H-M	'P1'
_symmetry_Int_Tables_number	1
_symmetry_cell_setting	triclinic
loop_
_symmetry_equiv_pos_as_xyz
  x,y,z
_cell_length_a	27.732048
_cell_length_b	27.732048
_cell_length_c	26.809956
_cell_angle_alpha	89.981467
_cell_angle_beta	89.990422
_cell_angle_gamma	82.642654
loop_
_atom_site_label
_atom_site_type_symbol
_atom_site_fract_x
_atom_site_fract_y
_atom_site_fract_z
O1	O	0.057516	0.640935	-0.041513
O2	O	0.307516	0.890935	0.208487
O3	O	0.557516	1.140935	0.458487
O4	O	0.807516	1.390935	0.708487
O5	O	0.066261	0.500142	-0.041509
O6	O	0.316261	0.750142	0.208491
O7	O	0.566261	1.000142	0.458491
O8	O	0.816261	1.250142	0.708491
O9	O	-0.008508	0.574911	-0.041501
O10	O	0.241492	0.824911	0.208499
O11	O	0.491492	1.074911	0.458499
O12	O	0.741492	1.324911	0.708499
O13	O	0.132285	0.566166	-0.041520
O14	O	0.382285	0.816166	0.208480
O15	O	0.632285	1.066166	0.458480
O16	O	0.882285	1.316166	0.708480
O17	O	-0.008508	0.574889	0.041458
O18	O	0.241492	0.824889	0.291458
O19	O	0.491492	1.074889	0.541458
O20	O	0.741492	1.324889	0.791458
O21	O	0.066261	0.500119	0.041451
O22	O	0.316261	0.750119	0.291451
O23	O	0.566261	1.000119	0.541451
O24	O	0.816261	1.250119	0.791451
O25	O	0.057516	0.640913	0.041446
O26	O	0.307516	0.890913	0.291446
O27	O	0.557516	1.140913	0.541446
O28	O	0.807516	1.390913	0.791446
Zn29	Zn	0.061889	0.570512	0.054620
Zn30	Zn	0.311889	0.820512	0.304620
Zn31	Zn	0.561889	1.070512	0.554620
Zn32	Zn	0.811889	1.320512	0.804620
Zn33	Zn	0.061889	0.570542	-0.054682
Zn34	Zn	0.311889	0.820542	0.195318
Zn35	Zn	0.561889	1.070542	0.445318
Zn36	Zn	0.811889	1.320542	0.695318
O37	O	0.132285	0.566143	0.041439
O38	O	0.382285	0.816143	0.291439
O39	O	0.632285	1.066143	0.541439
O40	O	0.882285	1.316143	0.791439
C41	C	-0.026515	0.574716	-0.000020
C42	C	0.223485	0.824716	0.249980
C43	C	0.473485	1.074716	0.499980
C44	C	0.723485	1.324716	0.749980
C45	C	-0.080170	0.574164	-0.000016
C46	C	0.169830	0.824164	0.249984
C47	C	0.419830	1.074164	0.499984
C48	C	0.669830	1.324164	0.749984
C49	C	0.057699	0.658931	-0.000035
C50	C	0.307699	0.908931	0.249965
C51	C	0.557699	1.158931	0.499965
C52	C	0.807699	1.408931	0.749965
C53	C	0.058252	0.712586	-0.000041
C54	C	0.308252	0.962586	0.249959
C55	C	0.558252	1.212586	0.499959
C56	C	0.808252	1.462586	0.749959
C57	C	0.066078	0.482124	-0.000028
C58	C	0.316078	0.732124	0.249972
C59	C	0.566078	0.982124	0.499972
C60	C	0.816078	1.232124	0.749972
C61	C	0.065525	0.428469	-0.000026
C62	C	0.315525	0.678469	0.249974
C63	C	0.565525	0.928469	0.499974
C64	C	0.815525	1.178469	0.749974
C65	C	-0.418985	0.614867	-0.000043
C66	C	-0.168985	0.864867	0.249957
C67	C	0.081015	1.114867	0.499957
C68	C	0.331015	1.364867	0.749957
C69	C	-0.620645	0.612816	-0.000050
C70	C	-0.370645	0.862816	0.249950
C71	C	-0.120645	1.112816	0.499950
C72	C	0.129355	1.362816	0.749950
O73	O	-0.651900	0.650037	-0.000073
O74	O	-0.401900	0.900037	0.249927
O75	O	-0.151900	1.150037	0.499927
O76	O	0.098100	1.400037	0.749927
N77	N	-0.639768	0.568481	-0.000048
N78	N	-0.389768	0.818481	0.249952
N79	N	-0.139768	1.068481	0.499952
N80	N	0.110232	1.318481	0.749952
C81	C	-0.608474	0.524656	-0.000048
C82	C	-0.358474	0.774656	0.249952
C83	C	-0.108474	1.024656	0.499952
C84	C	0.141526	1.274656	0.749952
O85	O	-0.629367	0.486899	-0.000052
O86	O	-0.379367	0.736899	0.249948
O87	O	-0.129367	0.986899	0.499948
O88	O	0.120633	1.236899	0.749948
C89	C	-0.406815	0.526707	-0.000045
C90	C	-0.156815	0.776707	0.249955
C91	C	0.093185	1.026707	0.499955
C92	C	0.343185	1.276707	0.749955
C93	C	-0.387694	0.571045	-0.000041
C94	C	-0.137694	0.821045	0.249959
C95	C	0.112306	1.071045	0.499959
C96	C	0.362306	1.321045	0.749959
C97	C	-0.399864	0.659202	-0.000041
C98	C	-0.149864	0.909202	0.249959
C99	C	0.100136	1.159202	0.499959
C100	C	0.350136	1.409202	0.749959
C101	C	-0.349452	0.659714	-0.000036
C102	C	-0.099452	0.909714	0.249964
C103	C	0.150548	1.159714	0.499964
C104	C	0.400548	1.409714	0.749964
C105	C	-0.318161	0.615892	-0.000034
C106	C	-0.068161	0.865892	0.249966
C107	C	0.181839	1.115892	0.499966
C108	C	0.431839	1.365892	0.749966
C109	C	-0.337282	0.571557	-0.000037
C110	C	-0.087282	0.821557	0.249963
C111	C	0.162718	1.071557	0.499963
C112	C	0.412718	1.321557	0.749963
C113	C	-0.375521	0.482882	-0.000048
C114	C	-0.125521	0.732882	0.249952
C115	C	0.124479	0.982882	0.499952
C116	C	0.374479	1.232882	0.749952
C117	C	-0.325104	0.483399	-0.000048
C118	C	-0.075104	0.733399	0.249952
C119	C	0.174896	0.983399	0.499952
C120	C	0.424896	1.233399	0.749952
C121	C	-0.305983	0.527737	-0.000045
C122	C	-0.055983	0.777737	0.249955
C123	C	0.194017	1.027737	0.499955
C124	C	0.444017	1.277737	0.749955
C125	C	-0.255580	0.528248	-0.000031
C126	C	-0.005580	0.778248	0.249969
C127	C	0.244420	1.028248	0.499969
C128	C	0.494420	1.278248	0.749969
N129	N	-0.236456	0.572583	-0.000033
N130	N	0.013544	0.822583	0.249967
N131	N	0.263544	1.072583	0.499967
N132	N	0.513544	1.322583	0.749967
C133	C	-0.267747	0.616405	-0.000034
C134	C	-0.017747	0.866405	0.249966
C135	C	0.232253	1.116405	0.499966
C136	C	0.482253	1.366405	0.749966
C137	C	-0.714348	0.523582	-0.000049
C138	C	-0.464348	0.773582	0.249951
C139	C	-0.214348	1.023582	0.499951
C140	C	0.035652	1.273582	0.749951
C141	C	-0.764762	0.523069	-0.000049
C142	C	-0.514762	0.773069	0.249951
C143	C	-0.264762	1.023069	0.499951
C144	C	-0.014762	1.273069	0.749951
C145	C	-0.776930	0.611230	-0.000052
C146	C	-0.526930	0.861230	0.249948
C147	C	-0.276930	1.111230	0.499948
C148	C	-0.026930	1.361230	0.749948
C149	C	-0.726514	0.611742	-0.000048
C150	C	-0.476514	0.861742	0.249952
C151	C	-0.226514	1.111742	0.499952
C152	C	0.023486	1.361742	0.749952
C153	C	-0.695224	0.567917	-0.000051
C154	C	-0.445224	0.817917	0.249949
C155	C	-0.195224	1.067917	0.499949
C156	C	0.054776	1.317917	0.749949
C157	C	-0.161878	0.617477	-0.000025
C158	C	0.088122	0.867477	0.249975
C159	C	0.338122	1.117477	0.499975
C160	C	0.588122	1.367477	0.749975
C161	C	-0.111461	0.617986	-0.000018
C162	C	0.138539	0.867986	0.249982
C163	C	0.388539	1.117986	0.499982
C164	C	0.638539	1.367986	0.749982
C165	C	-0.099298	0.529825	-0.000018
C166	C	0.150702	0.779825	0.249982
C167	C	0.400702	1.029825	0.499982
C168	C	0.650702	1.279825	0.749982
C169	C	-0.149710	0.529316	-0.000021
C170	C	0.100290	0.779316	0.249979
C171	C	0.350290	1.029316	0.499979
C172	C	0.600290	1.279316	0.749979
C173	C	-0.180999	0.573147	-0.000027
C174	C	0.069001	0.823147	0.249973
C175	C	0.319001	1.073147	0.499973
C176	C	0.569001	1.323147	0.749973
O177	O	-0.224296	0.491047	-0.000013
O178	O	0.025704	0.741047	0.249987
O179	O	0.275704	0.991047	0.499987
O180	O	0.525704	1.241047	0.749987
O181	O	-0.246844	0.654156	-0.000042
O182	O	0.003156	0.904156	0.249958
O183	O	0.253156	1.154156	0.499958
O184	O	0.503156	1.404156	0.749958
C185	C	-0.469397	0.614355	-0.000048
C186	C	-0.219397	0.864355	0.249952
C187	C	0.030603	1.114355	0.499952
C188	C	0.280603	1.364355	0.749952
C189	C	-0.488518	0.570021	-0.000050
C190	C	-0.238518	0.820021	0.249950
C191	C	0.011482	1.070021	0.499950
C192	C	0.261482	1.320021	0.749950
C193	C	-0.457228	0.526198	-0.000048
C194	C	-0.207228	0.776198	0.249952
C195	C	0.042772	1.026198	0.499952
C196	C	0.292772	1.276198	0.749952
C197	C	-0.538933	0.569508	-0.000050
C198	C	-0.288933	0.819508	0.249950
C199	C	-0.038933	1.069508	0.499950
C200	C	0.211067	1.319508	0.749950
C201	C	-0.570223	0.613330	-0.000052
C202	C	-0.320223	0.863330	0.249948
C203	C	-0.070223	1.113330	0.499948
C204	C	0.179777	1.363330	0.749948
C205	C	-0.551100	0.657665	-0.000054
C206	C	-0.301100	0.907665	0.249946
C207	C	-0.051100	1.157665	0.499946
C208	C	0.198900	1.407665	0.749946
C209	C	-0.500688	0.658177	-0.000049
C210	C	-0.250688	0.908177	0.249951
C211	C	-0.000688	1.158177	0.499951
C212	C	0.249312	1.408177	0.749951
C213	C	-0.476351	0.481863	-0.000047
C214	C	-0.226351	0.731863	0.249953
C215	C	0.023649	0.981863	0.499953
C216	C	0.273649	1.231863	0.749953
C217	C	-0.526764	0.481355	-0.000050
C218	C	-0.276764	0.731355	0.249950
C219	C	-0.026764	0.981355	0.499950
C220	C	0.223236	1.231355	0.749950
C221	C	-0.558054	0.525177	-0.000052
C222	C	-0.308054	0.775177	0.249948
C223	C	-0.058054	1.025177	0.499948
C224	C	0.191946	1.275177	0.749948
C225	C	0.150292	0.566338	-0.000043
C226	C	0.400292	0.816338	0.249957
C227	C	0.650292	1.066338	0.499957
C228	C	0.900292	1.316338	0.749957
C229	C	0.203947	0.566891	-0.000050
C230	C	0.453947	0.816891	0.249950
C231	C	0.703947	1.066891	0.499950
C232	C	0.953947	1.316891	0.749950
N233	N	0.061888	0.570495	0.129216
N234	N	0.311888	0.820495	0.379216
N235	N	0.561888	1.070495	0.629216
N236	N	0.811888	1.320495	0.879216
C237	C	0.017548	1.051401	-0.000018
C238	C	0.267548	1.301401	0.249982
C239	C	0.517548	1.551401	0.499982
C240	C	0.767548	1.801401	0.749982
C241	C	0.019599	1.253060	-0.000017
C242	C	0.269599	1.503060	0.249983
C243	C	0.519599	1.753060	0.499983
C244	C	0.769599	2.003060	0.749983
O245	O	-0.017621	1.284316	0.000010
O246	O	0.232379	1.534316	0.250010
O247	O	0.482379	1.784316	0.500010
O248	O	0.732379	2.034316	0.750010
N249	N	0.063935	1.272184	-0.000024
N250	N	0.313935	1.522184	0.249976
N251	N	0.563935	1.772184	0.499976
N252	N	0.813935	2.022184	0.749976
C253	C	0.107760	1.240890	-0.000028
C254	C	0.357760	1.490890	0.249972
C255	C	0.607760	1.740890	0.499972
C256	C	0.857760	1.990890	0.749972
O257	O	0.145517	1.261783	-0.000030
O258	O	0.395517	1.511783	0.249970
O259	O	0.645517	1.761783	0.499970
O260	O	0.895517	2.011783	0.749970
C261	C	0.105709	1.039231	-0.000026
C262	C	0.355709	1.289231	0.249974
C263	C	0.605709	1.539231	0.499974
C264	C	0.855709	1.789231	0.749974
C265	C	0.061371	1.020110	-0.000024
C266	C	0.311371	1.270110	0.249976
C267	C	0.561371	1.520110	0.499976
C268	C	0.811371	1.770110	0.749976
C269	C	-0.026786	1.032280	-0.000015
C270	C	0.223214	1.282280	0.249985
C271	C	0.473214	1.532280	0.499985
C272	C	0.723214	1.782280	0.749985
C273	C	-0.027298	0.981868	-0.000018
C274	C	0.222702	1.231868	0.249982
C275	C	0.472702	1.481868	0.499982
C276	C	0.722702	1.731868	0.749982
C277	C	0.016524	0.950577	-0.000024
C278	C	0.266524	1.200577	0.249976
C279	C	0.516524	1.450577	0.499976
C280	C	0.766524	1.700577	0.749976
C281	C	0.060858	0.969698	-0.000027
C282	C	0.310858	1.219698	0.249973
C283	C	0.560858	1.469698	0.499973
C284	C	0.810858	1.719698	0.749973
C285	C	0.149534	1.007937	-0.000027
C286	C	0.399534	1.257937	0.249973
C287	C	0.649534	1.507937	0.499973
C288	C	0.899534	1.757937	0.749973
C289	C	0.149017	0.957520	-0.000025
C290	C	0.399017	1.207520	0.249975
C291	C	0.649017	1.457520	0.499975
C292	C	0.899017	1.707520	0.749975
C293	C	0.104679	0.938399	-0.000023
C294	C	0.354679	1.188399	0.249977
C295	C	0.604679	1.438399	0.499977
C296	C	0.854679	1.688399	0.749977
C297	C	0.104168	0.887996	-0.000036
C298	C	0.354168	1.137996	0.249964
C299	C	0.604168	1.387996	0.499964
C300	C	0.854168	1.637996	0.749964
N301	N	0.059833	0.868872	-0.000029
N302	N	0.309833	1.118872	0.249971
N303	N	0.559833	1.368872	0.499971
N304	N	0.809833	1.618872	0.749971
C305	C	0.016011	0.900163	-0.000023
C306	C	0.266011	1.150163	0.249977
C307	C	0.516011	1.400163	0.499977
C308	C	0.766011	1.650163	0.749977
C309	C	0.108834	1.346764	-0.000031
C310	C	0.358834	1.596764	0.249969
C311	C	0.608834	1.846764	0.499969
C312	C	0.858834	2.096764	0.749969
C313	C	0.109347	1.397178	-0.000032
C314	C	0.359347	1.647178	0.249968
C315	C	0.609347	1.897178	0.499968
C316	C	0.859347	2.147178	0.749968
C317	C	0.021186	1.409345	-0.000019
C318	C	0.271186	1.659345	0.249981
C319	C	0.521186	1.909345	0.499981
C320	C	0.771186	2.159345	0.749981
C321	C	0.020674	1.358930	-0.000021
C322	C	0.270674	1.608930	0.249979
C323	C	0.520674	1.858930	0.499979
C324	C	0.770674	2.108930	0.749979
C325	C	0.064499	1.327640	-0.000023
C326	C	0.314499	1.577640	0.249977
C327	C	0.564499	1.827640	0.499977
C328	C	0.814499	2.077640	0.749977
C329	C	0.014938	0.794293	-0.000030
C330	C	0.264938	1.044293	0.249970
C331	C	0.514938	1.294293	0.499970
C332	C	0.764938	1.544293	0.749970
C333	C	0.014430	0.743876	-0.000035
C334	C	0.264430	0.993876	0.249965
C335	C	0.514430	1.243876	0.499965
C336	C	0.764430	1.493876	0.749965
C337	C	0.102591	0.731713	-0.000045
C338	C	0.352591	0.981713	0.249955
C339	C	0.602591	1.231713	0.499955
C340	C	0.852591	1.481713	0.749955
C341	C	0.103099	0.782126	-0.000042
C342	C	0.353099	1.032126	0.249958
C343	C	0.603099	1.282126	0.499958
C344	C	0.853099	1.532126	0.749958
C345	C	0.059269	0.813415	-0.000033
C346	C	0.309269	1.063415	0.249967
C347	C	0.559269	1.313415	0.499967
C348	C	0.809269	1.563415	0.749967
O349	O	0.141369	0.856712	-0.000057
O350	O	0.391369	1.106712	0.249943
O351	O	0.641369	1.356712	0.499943
O352	O	0.891369	1.606712	0.749943
O353	O	-0.021740	0.879260	-0.000011
O354	O	0.228260	1.129260	0.249989
O355	O	0.478260	1.379260	0.499989
O356	O	0.728260	1.629260	0.749989
C357	C	0.018061	1.101813	-0.000015
C358	C	0.268061	1.351813	0.249985
C359	C	0.518061	1.601813	0.499985
C360	C	0.768061	1.851813	0.749985
C361	C	0.062395	1.120934	-0.000018
C362	C	0.312395	1.370934	0.249982
C363	C	0.562395	1.620934	0.499982
C364	C	0.812395	1.870934	0.749982
C365	C	0.106217	1.089643	-0.000024
C366	C	0.356217	1.339643	0.249976
C367	C	0.606217	1.589643	0.499976
C368	C	0.856217	1.839643	0.749976
C369	C	0.062908	1.171348	-0.000019
C370	C	0.312908	1.421348	0.249981
C371	C	0.562908	1.671348	0.499981
C372	C	0.812908	1.921348	0.749981
C373	C	0.019086	1.202639	-0.000013
C374	C	0.269086	1.452639	0.249987
C375	C	0.519086	1.702639	0.499987
C376	C	0.769086	1.952639	0.749987
C377	C	-0.025249	1.183515	-0.000006
C378	C	0.224751	1.433515	0.249994
C379	C	0.474751	1.683515	0.499994
C380	C	0.724751	1.933515	0.749994
C381	C	-0.025761	1.133103	-0.000009
C382	C	0.224239	1.383103	0.249991
C383	C	0.474239	1.633103	0.499991
C384	C	0.724239	1.883103	0.749991
C385	C	0.150553	1.108767	-0.000031
C386	C	0.400553	1.358767	0.249969
C387	C	0.650553	1.608767	0.499969
C388	C	0.900553	1.858767	0.749969
C389	C	0.151061	1.159180	-0.000029
C390	C	0.401061	1.409180	0.249971
C391	C	0.651061	1.659180	0.499971
C392	C	0.901061	1.909180	0.749971
C393	C	0.107239	1.190470	-0.000023
C394	C	0.357239	1.440470	0.249977
C395	C	0.607239	1.690470	0.499977
C396	C	0.857239	1.940470	0.749977
N397	N	0.061885	0.570563	-0.129278
N398	N	0.311885	0.820563	0.120722
N399	N	0.561885	1.070563	0.370722
N400	N	0.811885	1.320563	0.620722
C401	C	0.090999	0.599633	0.473837
C402	C	0.340999	0.849633	0.723837
C403	C	0.590999	1.099633	0.973837
C404	C	0.840999	1.349633	1.223837
C405	C	0.090999	0.599648	0.682715
C406	C	0.340999	0.849648	0.932715
C407	C	0.590999	1.099648	1.182715
C408	C	0.840999	1.349648	1.432715
O409	O	0.115745	0.624410	0.709714
O410	O	0.365745	0.874410	0.959714
O411	O	0.615745	1.124410	1.209714
O412	O	0.865745	1.374410	1.459714
N413	N	0.061884	0.570554	0.708843
N414	N	0.311884	0.820554	0.958843
N415	N	0.561884	1.070554	1.208843
N416	N	0.811884	1.320554	1.458843
C417	C	0.032764	0.541456	0.682749
C418	C	0.282764	0.791456	0.932749
C419	C	0.532764	1.041456	1.182749
C420	C	0.782764	1.291456	1.432749
O421	O	0.007996	0.516713	0.709765
O422	O	0.257996	0.766713	0.959765
O423	O	0.507996	1.016713	1.209765
O424	O	0.757996	1.266713	1.459765
C425	C	0.032762	0.541443	0.473872
C426	C	0.282762	0.791443	0.723872
C427	C	0.532762	1.041443	0.973872
C428	C	0.782762	1.291443	1.223872
C429	C	0.061883	0.570536	0.447746
C430	C	0.311883	0.820536	0.697746
C431	C	0.561883	1.070536	0.947746
C432	C	0.811883	1.320536	1.197746
C433	C	0.120117	0.628724	0.447711
C434	C	0.370117	0.878724	0.697711
C435	C	0.620117	1.128724	0.947711
C436	C	0.870117	1.378724	1.197711
C437	C	0.120119	0.628717	0.395495
C438	C	0.370119	0.878717	0.645495
C439	C	0.620119	1.128717	0.895495
C440	C	0.870119	1.378717	1.145495
C441	C	0.091003	0.599620	0.369404
C442	C	0.341003	0.849620	0.619404
C443	C	0.591003	1.099620	0.869404
C444	C	0.841003	1.349620	1.119404
C445	C	0.061885	0.570530	0.395530
C446	C	0.311885	0.820530	0.645530
C447	C	0.561885	1.070530	0.895530
C448	C	0.811885	1.320530	1.145530
C449	C	0.003640	0.512348	0.447779
C450	C	0.253640	0.762348	0.697779
C451	C	0.503640	1.012348	0.947779
C452	C	0.753640	1.262348	1.197779
C453	C	0.003641	0.512348	0.395556
C454	C	0.253641	0.762348	0.645556
C455	C	0.503641	1.012348	0.895556
C456	C	0.753641	1.262348	1.145556
C457	C	0.032762	0.541441	0.369431
C458	C	0.282762	0.791441	0.619431
C459	C	0.532762	1.041441	0.869431
C460	C	0.782762	1.291441	1.119431
C461	C	0.032770	0.541426	0.317223
C462	C	0.282770	0.791426	0.567223
C463	C	0.532770	1.041426	0.817223
C464	C	0.782770	1.291426	1.067223
N465	N	0.061886	0.570521	0.291095
N466	N	0.311886	0.820521	0.541095
N467	N	0.561886	1.070521	0.791095
N468	N	0.811886	1.320521	1.041095
C469	C	0.091002	0.599618	0.317185
C470	C	0.341002	0.849618	0.567185
C471	C	0.591002	1.099618	0.817185
C472	C	0.841002	1.349618	1.067185
C473	C	0.032768	0.541464	0.792412
C474	C	0.282768	0.791464	1.042412
C475	C	0.532768	1.041464	1.292412
C476	C	0.782768	1.291464	1.542412
C477	C	0.032769	0.541466	0.844631
C478	C	0.282769	0.791466	1.094631
C479	C	0.532769	1.041466	1.344631
C480	C	0.782769	1.291466	1.594631
C481	C	0.091003	0.599660	0.844593
C482	C	0.341003	0.849660	1.094593
C483	C	0.591003	1.099660	1.344593
C484	C	0.841003	1.349660	1.594593
C485	C	0.091004	0.599654	0.792373
C486	C	0.341004	0.849654	1.042373
C487	C	0.591004	1.099654	1.292373
C488	C	0.841004	1.349654	1.542373
C489	C	0.061883	0.570558	0.766284
C490	C	0.311883	0.820558	1.016284
C491	C	0.561883	1.070558	1.266284
C492	C	0.811883	1.320558	1.516284
C493	C	0.091004	0.599602	0.207528
C494	C	0.341004	0.849602	0.457528
C495	C	0.591004	1.099602	0.707528
C496	C	0.841004	1.349602	0.957528
C497	C	0.091005	0.599592	0.155307
C498	C	0.341005	0.849592	0.405307
C499	C	0.591005	1.099592	0.655307
C500	C	0.841005	1.349592	0.905307
C501	C	0.032769	0.541401	0.155349
C502	C	0.282769	0.791401	0.405349
C503	C	0.532769	1.041401	0.655349
C504	C	0.782769	1.291401	0.905349
C505	C	0.032769	0.541409	0.207565
C506	C	0.282769	0.791409	0.457565
C507	C	0.532769	1.041409	0.707565
C508	C	0.782769	1.291409	0.957565
C509	C	0.061889	0.570514	0.233653
C510	C	0.311889	0.820514	0.483653
C511	C	0.561889	1.070514	0.733653
C512	C	0.811889	1.320514	0.983653
O513	O	0.008033	0.516682	0.290192
O514	O	0.258033	0.766682	0.540192
O515	O	0.508033	1.016682	0.790192
O516	O	0.758033	1.266682	1.040192
O517	O	0.115758	0.624365	0.290160
O518	O	0.365758	0.874365	0.540160
O519	O	0.615758	1.124365	0.790160
O520	O	0.865758	1.374365	1.040160
C521	C	0.090998	0.599639	0.526053
C522	C	0.340998	0.849639	0.776053
C523	C	0.590998	1.099639	1.026053
C524	C	0.840998	1.349639	1.276053
C525	C	0.061879	0.570548	0.552179
C526	C	0.311879	0.820548	0.802179
C527	C	0.561879	1.070548	1.052179
C528	C	0.811879	1.320548	1.302179
C529	C	0.032763	0.541451	0.526088
C530	C	0.282763	0.791451	0.776088
C531	C	0.532763	1.041451	1.026088
C532	C	0.782763	1.291451	1.276088
C533	C	0.061880	0.570551	0.604398
C534	C	0.311880	0.820551	0.854398
C535	C	0.561880	1.070551	1.104398
C536	C	0.811880	1.320551	1.354398
C537	C	0.090997	0.599648	0.630489
C538	C	0.340997	0.849648	0.880489
C539	C	0.590997	1.099648	1.130489
C540	C	0.840997	1.349648	1.380489
C541	C	0.120112	0.628742	0.604360
C542	C	0.370112	0.878742	0.854360
C543	C	0.620112	1.128742	1.104360
C544	C	0.870112	1.378742	1.354360
C545	C	0.120114	0.628736	0.552144
C546	C	0.370114	0.878736	0.802144
C547	C	0.620114	1.128736	1.052144
C548	C	0.870114	1.378736	1.302144
C549	C	0.003648	0.512357	0.552217
C550	C	0.253648	0.762357	0.802217
C551	C	0.503648	1.012357	1.052217
C552	C	0.753648	1.262357	1.302217
C553	C	0.003649	0.512365	0.604433
C554	C	0.253649	0.762365	0.854433
C555	C	0.503649	1.012365	1.104433
C556	C	0.753649	1.262365	1.354433
C557	C	0.032765	0.541462	0.630524
C558	C	0.282765	0.791462	0.880524
C559	C	0.532765	1.041462	1.130524
C560	C	0.782765	1.291462	1.380524
H561	H	-0.095896	0.654093	-0.000014
H562	H	0.154104	0.904093	0.249986
H563	H	0.404104	1.154093	0.499986
H564	H	0.654104	1.404093	0.749986
H565	H	-0.187348	0.653168	-0.000031
H566	H	0.062652	0.903168	0.249969
H567	H	0.312652	1.153168	0.499969
H568	H	0.562652	1.403168	0.749969
H569	H	-0.710950	0.647846	-0.000046
H570	H	-0.460950	0.897846	0.249954
H571	H	-0.210950	1.147846	0.499954
H572	H	0.039050	1.397846	0.749954
F573	F	-0.170060	0.482127	-0.000016
F574	F	0.079940	0.732127	0.249984
F575	F	0.329940	0.982127	0.499984
F576	F	0.579940	1.232127	0.749984
F577	F	-0.329109	0.706905	-0.000043
F578	F	-0.079109	0.956905	0.249957
F579	F	0.170891	1.206905	0.499957
F580	F	0.420891	1.456905	0.749957
F581	F	-0.433159	0.705848	-0.000043
F582	F	-0.183159	0.955848	0.249957
F583	F	0.066841	1.205848	0.499957
F584	F	0.316841	1.455848	0.749957
H585	H	-0.063403	0.966305	-0.000014
H586	H	0.186597	1.216305	0.249986
H587	H	0.436597	1.466305	0.499986
H588	H	0.686597	1.716305	0.749986
H589	H	-0.020752	0.819764	-0.000022
H590	H	0.229248	1.069764	0.249978
H591	H	0.479248	1.319764	0.499978
H592	H	0.729248	1.569764	0.749978
F593	F	0.196725	1.028276	-0.000030
F594	F	0.446725	1.278276	0.249970
F595	F	0.696725	1.528276	0.499970
F596	F	0.946725	1.778276	0.749970
F597	F	-0.065987	0.483189	-0.000016
F598	F	0.184013	0.733189	0.249984
F599	F	0.434013	0.983189	0.499984
F600	F	0.684013	1.233189	0.749984
F601	F	0.151120	0.659676	0.367697
F602	F	0.401120	0.909676	0.617697
F603	F	0.651120	1.159676	0.867697
F604	F	0.901120	1.409676	1.117697
H605	H	-0.802415	0.646911	-0.000053
H606	H	-0.552415	0.896911	0.249947
H607	H	-0.302415	1.146911	0.499947
H608	H	-0.052415	1.396911	0.749947
H609	H	0.145452	1.412741	-0.000041
H610	H	0.395452	1.662741	0.249959
H611	H	0.645452	1.912741	0.499959
H612	H	0.895452	2.162741	0.749959
F613	F	0.151110	0.659696	0.475471
F614	F	0.401110	0.909696	0.725471
F615	F	0.651110	1.159696	0.975471
F616	F	0.901110	1.409696	1.225471
H617	H	-0.062473	1.057752	-0.000009
H618	H	0.187527	1.307752	0.249991
H619	H	0.437527	1.557752	0.499991
H620	H	0.687527	1.807752	0.749991
H621	H	-0.020074	0.488654	0.374317
H622	H	0.229926	0.738654	0.624317
H623	H	0.479926	0.988654	0.874317
H624	H	0.729926	1.238654	1.124317
F625	F	0.121997	0.630620	0.764573
F626	F	0.371997	0.880620	1.014573
F627	F	0.621997	1.130620	1.264573
F628	F	0.871997	1.380620	1.514573
F629	F	-0.785106	0.475878	-0.000043
F630	F	-0.535106	0.725878	0.249957
F631	F	-0.285106	0.975878	0.499957
F632	F	-0.035106	1.225878	0.749957
H633	H	-0.450879	0.446177	-0.000046
H634	H	-0.200879	0.696177	0.249954
H635	H	0.049121	0.946177	0.499954
H636	H	0.299121	1.196177	0.749954
F637	F	0.121990	0.630628	0.872370
F638	F	0.371990	0.880628	1.122370
F639	F	0.621990	1.130628	1.372370
F640	F	0.871990	1.380628	1.622370
H641	H	-0.021677	0.728311	-0.000034
H642	H	0.228323	0.978311	0.249966
H643	H	0.478323	1.228311	0.499966
H644	H	0.728323	1.478311	0.749966
F645	F	0.001781	0.510495	0.872430
F646	F	0.251781	0.760495	1.122430
F647	F	0.501781	1.010495	1.372430
F648	F	0.751781	1.260495	1.622430
H649	H	-0.015430	1.343366	-0.000019
H650	H	0.234570	1.593366	0.249981
H651	H	0.484570	1.843366	0.499981
H652	H	0.734570	2.093366	0.749981
H653	H	0.184706	0.932045	-0.000024
H654	H	0.434706	1.182045	0.249976
H655	H	0.684706	1.432045	0.499976
H656	H	0.934706	1.682045	0.749976
F657	F	-0.395860	0.435691	-0.000053
F658	F	-0.145860	0.685691	0.249947
F659	F	0.104140	0.935691	0.499947
F660	F	0.354140	1.185691	0.749947
F661	F	0.150289	0.802476	-0.000051
F662	F	0.400289	1.052476	0.249949
F663	F	0.650289	1.302476	0.499949
F664	F	0.900289	1.552476	0.749949
F665	F	-0.480345	0.705368	-0.000049
F666	F	-0.230345	0.955368	0.249951
F667	F	0.019655	1.205368	0.499951
F668	F	0.269655	1.455368	0.749951
H669	H	0.009063	0.517713	0.228838
H670	H	0.259063	0.767713	0.478838
H671	H	0.509063	1.017713	0.728838
H672	H	0.759063	1.267713	0.978838
H673	H	-0.576585	0.693347	-0.000053
H674	H	-0.326585	0.943347	0.249947
H675	H	-0.076585	1.193347	0.499947
H676	H	0.173415	1.443347	0.749947
F677	F	-0.025453	1.442656	-0.000014
F678	F	0.224547	1.692656	0.249986
F679	F	0.474547	1.942656	0.499986
F680	F	0.724547	2.192656	0.749986
H681	H	0.186239	1.083295	-0.000035
H682	H	0.436239	1.333295	0.249965
H683	H	0.686239	1.583295	0.499965
H684	H	0.936239	1.833295	0.749965
H685	H	0.114721	0.623283	0.134037
H686	H	0.364721	0.873283	0.384037
H687	H	0.614721	1.123283	0.634037
H688	H	0.864721	1.373283	0.884037
F689	F	0.149227	0.698403	-0.000054
F690	F	0.399227	0.948403	0.249946
F691	F	0.649227	1.198403	0.499946
F692	F	0.899227	1.448403	0.749946
F693	F	-0.072952	1.112760	-0.000009
F694	F	0.177048	1.362760	0.249991
F695	F	0.427048	1.612760	0.499991
F696	F	0.677048	1.862760	0.749991
H697	H	-0.688875	0.487892	-0.000050
H698	H	-0.438875	0.737892	0.249950
H699	H	-0.188875	0.987892	0.499950
H700	H	0.061125	1.237892	0.749950
F701	F	0.155482	1.313467	-0.000035
F702	F	0.405482	1.563467	0.249965
F703	F	0.655482	1.813467	0.499965
F704	F	0.905482	2.063467	0.749965
H705	H	-0.060931	1.209001	-0.000004
H706	H	0.189069	1.459001	0.249996
H707	H	0.439069	1.709001	0.499996
H708	H	0.689069	1.959001	0.749996
F709	F	0.001778	0.510486	0.764652
F710	F	0.251778	0.760486	1.014652
F711	F	0.501778	1.010486	1.264652
F712	F	0.751778	1.260486	1.514652
F713	F	-0.027355	0.481382	0.475573
F714	F	0.222645	0.731382	0.725573
F715	F	0.472645	0.981382	0.975573
F716	F	0.722645	1.231382	1.225573
F717	F	-0.291805	0.436752	-0.000052
F718	F	-0.041805	0.686752	0.249948
F719	F	0.208195	0.936752	0.499948
F720	F	0.458195	1.186752	0.749948
F721	F	0.198255	1.179523	-0.000035
F722	F	0.448255	1.429523	0.249965
F723	F	0.698255	1.679523	0.499965
F724	F	0.948255	1.929523	0.749965
H725	H	-0.542327	0.445246	-0.000049
H726	H	-0.292327	0.695246	0.249951
H727	H	-0.042327	0.945246	0.499951
H728	H	0.207673	1.195246	0.749951
F729	F	0.121995	0.630579	0.235285
F730	F	0.371995	0.880579	0.485285
F731	F	0.621995	1.130579	0.735285
F732	F	0.871995	1.380579	0.985285
F733	F	0.001784	0.510434	0.127572
F734	F	0.251784	0.760434	0.377572
F735	F	0.501784	1.010434	0.627572
F736	F	0.751784	1.260434	0.877572
F737	F	0.151111	0.659698	0.524346
F738	F	0.401111	0.909698	0.774346
F739	F	0.651111	1.159698	1.024346
F740	F	0.901111	1.409698	1.274346
F741	F	0.151102	0.659708	0.632137
F742	F	0.401102	0.909708	0.882137
F743	F	0.651102	1.159708	1.132137
F744	F	0.901102	1.409708	1.382137
H745	H	-0.020064	0.488669	0.625700
H746	H	0.229936	0.738669	0.875700
H747	H	0.479936	0.988669	1.125700
H748	H	0.729936	1.238669	1.375700
F749	F	-0.027338	0.481380	0.524456
F750	F	0.222662	0.731380	0.774456
F751	F	0.472662	0.981380	1.024456
F752	F	0.722662	1.231380	1.274456
