data_functionalizedCrystal
_audit_creation_method	'MofGen! by Chris Wilmer'
_symmetry_space_group_name_H-M	'P1'
_symmetry_Int_Tables_number	1
_symmetry_cell_setting	triclinic
loop_
_symmetry_equiv_pos_as_xyz
  x,y,z
_cell_length_a	16.120530
_cell_length_b	12.645330
_cell_length_c	16.120297
_cell_angle_alpha	87.123238
_cell_angle_beta	89.871860
_cell_angle_gamma	87.113442
loop_
_atom_site_label
_atom_site_type_symbol
_atom_site_fract_x
_atom_site_fract_y
_atom_site_fract_z
Zn1	Zn	1.247482	-0.537081	0.534595
Zn2	Zn	1.254445	-0.705843	0.395547
Zn3	Zn	1.115471	-0.519167	0.388512
Zn4	Zn	1.108402	-0.704866	0.527517
O5	O	1.181450	-0.616739	0.461543
O6	O	1.364772	-0.567373	0.522057
O7	O	1.241883	-0.673991	0.278248
O8	O	1.133026	-0.373200	0.407909
O9	O	1.369888	-0.691362	0.419899
O10	O	1.230014	-0.386361	0.515235
O11	O	1.139779	-0.536842	0.273080
O12	O	0.998166	-0.535895	0.401045
O13	O	1.120978	-0.689698	0.644821
O14	O	0.992972	-0.672327	0.503171
O15	O	1.223160	-0.566427	0.650022
O16	O	1.235028	-0.854056	0.413035
O17	O	1.127731	-0.853339	0.509992
C18	C	0.965397	-0.602062	0.450577
C19	C	0.872967	-0.595810	0.445905
C20	C	0.703737	-0.584371	0.437383
C21	C	0.660000	-0.649190	0.485763
C22	C	0.565835	-0.642825	0.481022
C23	C	0.797911	-0.590734	0.442124
C24	C	1.181390	-0.892164	0.461528
C25	C	1.181439	-1.009999	0.461554
C26	C	1.114193	-1.177186	0.522761
C27	C	1.113876	-1.054592	0.522537
C28	C	1.162161	-1.047614	0.372717
C29	C	1.161751	-1.170210	0.373088
C30	C	1.268390	-1.184441	0.488492
C31	C	1.267753	-1.061915	0.490381
C32	C	1.398347	-0.631475	0.472552
C33	C	1.490775	-0.637754	0.477244
C34	C	1.170504	-0.629952	0.678438
C35	C	1.165839	-0.635582	0.770865
C36	C	1.181532	-0.340242	0.461577
C37	C	1.181567	-0.222415	0.461592
C38	C	1.192401	-0.603505	0.245494
C39	C	1.197227	-0.597587	0.153075
C40	C	1.157292	-0.645836	0.940091
C41	C	1.205771	-0.587337	0.983855
C42	C	1.201016	-0.593042	1.078018
C43	C	1.162047	-0.640132	0.845919
H44	H	0.693277	-0.709462	0.530745
Cl45	Cl	1.015292	-1.216742	0.495047
H46	H	1.125592	-1.211590	0.588700
H47	H	1.250846	-0.532968	0.950605
H48	H	0.670462	-0.524103	0.392405
H49	H	1.209874	-1.018501	0.325700
Cl50	Cl	1.131698	-1.015733	0.624024
H51	H	1.049419	-1.020022	0.504364
Cl52	Cl	1.063965	-1.205979	0.338705
Cl53	Cl	1.290327	-1.024886	0.591355
H54	H	1.112221	-0.700199	0.973339
H55	H	1.320237	-1.032010	0.449427
Cl56	Cl	1.065434	-0.991867	0.337853
Cl57	Cl	1.296882	-1.240268	0.587170
Cl58	Cl	1.234588	-1.215985	0.299947
H59	H	1.318531	-1.213794	0.443994
