# CIF file generated by openbabel 2.4.90, see http://openbabel.sf.net
data_I
_chemical_name_common ''
_cell_length_a 21.8827
_cell_length_b 21.8827
_cell_length_c 21.8827
_cell_angle_alpha 90
_cell_angle_beta 90
_cell_angle_gamma 90
_space_group_name_H-M_alt 'P 1'
_space_group_name_Hall 'P 1'
loop_
    _symmetry_equiv_pos_as_xyz
    x,y,z
loop_
    _atom_site_label
    _atom_site_type_symbol
    _atom_site_fract_x
    _atom_site_fract_y
    _atom_site_fract_z
    _atom_site_occupancy
    Ts0     Ts   0.79780   0.50000   0.50000   1.000
    Ts1     Ts   0.50000   0.50000   0.20220   1.000
    Ts2     Ts   0.00000   0.29780   0.00000   1.000
    Ts3     Ts   0.50000   0.50000   0.79780   1.000
    Ts4     Ts   0.00000   0.00000   0.70220   1.000
    Ts5     Ts   0.00000   0.70220   0.00000   1.000
    Ts6     Ts   0.29780   0.00000   0.00000   1.000
    Ts7     Ts   0.50000   0.79780   0.50000   1.000
    Ts8     Ts   0.50000   0.20220   0.50000   1.000
    Ts9     Ts   0.00000   0.00000   0.29780   1.000
    Ts10    Ts   0.20220   0.50000   0.50000   1.000
    Ts11    Ts   0.70220   0.00000   0.00000   1.000
