# CIF file generated by openbabel 2.4.90, see http://openbabel.sf.net
data_I
_chemical_name_common ''
_cell_length_a 21.8827
_cell_length_b 21.8827
_cell_length_c 21.8827
_cell_angle_alpha 90
_cell_angle_beta 90
_cell_angle_gamma 90
_space_group_name_H-M_alt 'P 1'
_space_group_name_Hall 'P 1'
loop_
    _symmetry_equiv_pos_as_xyz
    x,y,z
loop_
    _atom_site_label
    _atom_site_type_symbol
    _atom_site_fract_x
    _atom_site_fract_y
    _atom_site_fract_z
    _atom_site_occupancy
    C0      C    0.21700   0.51050   0.70440   1.000
    H1      H    0.22327   0.50853   0.74642   1.000
    C2      C    0.21550   0.45720   0.67030   1.000
    C3      C    0.20920   0.56690   0.67630   1.000
    C4      C    0.20890   0.46020   0.60810   1.000
    H5      H    0.20765   0.42441   0.58511   1.000
    C6      C    0.20410   0.51590   0.57970   1.000
    C7      C    0.20320   0.56950   0.61290   1.000
    H8      H    0.19864   0.60686   0.59323   1.000
    H9      H    0.24642   0.00853   0.72327   1.000
    H10     H    0.24642   0.99147   0.27673   1.000
    C11     C    0.56690   0.32370   0.79080   1.000
    C12     C    0.43310   0.32370   0.20920   1.000
    C13     C    0.06690   0.70920   0.17630   1.000
    C14     C    0.78300   0.48950   0.70440   1.000
    C15     C    0.78300   0.51050   0.29560   1.000
    C16     C    0.21700   0.48950   0.29560   1.000
    C17     C    0.70440   0.21700   0.51050   1.000
    C18     C    0.70440   0.78300   0.48950   1.000
    C19     C    0.29560   0.78300   0.51050   1.000
    C20     C    0.29560   0.21700   0.48950   1.000
    C21     C    0.51050   0.70440   0.21700   1.000
    C22     C    0.48950   0.70440   0.78300   1.000
    C23     C    0.51050   0.29560   0.78300   1.000
    C24     C    0.48950   0.29560   0.21700   1.000
    C25     C    0.01050   0.71700   0.20440   1.000
    C26     C    0.98950   0.28300   0.20440   1.000
    C27     C    0.01050   0.28300   0.79560   1.000
    C28     C    0.98950   0.71700   0.79560   1.000
    C29     C    0.71700   0.20440   0.01050   1.000
    C30     C    0.28300   0.20440   0.98950   1.000
    C31     C    0.28300   0.79560   0.01050   1.000
    C32     C    0.71700   0.79560   0.98950   1.000
    C33     C    0.20440   0.01050   0.71700   1.000
    C34     C    0.20440   0.98950   0.28300   1.000
    C35     C    0.79560   0.01050   0.28300   1.000
    C36     C    0.79560   0.98950   0.71700   1.000
    H37     H    0.77673   0.49147   0.74642   1.000
    H38     H    0.77673   0.50853   0.25358   1.000
    H39     H    0.22327   0.49147   0.25358   1.000
    H40     H    0.74642   0.22327   0.50853   1.000
    H41     H    0.74642   0.77673   0.49147   1.000
    H42     H    0.25358   0.77673   0.50853   1.000
    H43     H    0.25358   0.22327   0.49147   1.000
    H44     H    0.50853   0.74642   0.22327   1.000
    H45     H    0.49147   0.74642   0.77673   1.000
    H46     H    0.50853   0.25358   0.77673   1.000
    H47     H    0.49147   0.25358   0.22327   1.000
    H48     H    0.00853   0.72327   0.24642   1.000
    H49     H    0.99147   0.27673   0.24642   1.000
    H50     H    0.00853   0.27673   0.75358   1.000
    H51     H    0.99147   0.72327   0.75358   1.000
    H52     H    0.72327   0.24642   0.00853   1.000
    H53     H    0.27673   0.24642   0.99147   1.000
    H54     H    0.27673   0.75358   0.00853   1.000
    H55     H    0.72327   0.75358   0.99147   1.000
    H56     H    0.39314   0.40677   0.19864   1.000
    H57     H    0.10686   0.69864   0.09323   1.000
    H58     H    0.89314   0.30136   0.09323   1.000
    H59     H    0.10686   0.30136   0.90677   1.000
    H60     H    0.89314   0.69864   0.90677   1.000
    H61     H    0.69864   0.09323   0.10686   1.000
    H62     H    0.75358   0.00853   0.27673   1.000
    H63     H    0.75358   0.99147   0.72327   1.000
    C64     C    0.78450   0.54280   0.67030   1.000
    C65     C    0.78450   0.45720   0.32970   1.000
    C66     C    0.21550   0.54280   0.32970   1.000
    C67     C    0.67030   0.21550   0.45720   1.000
    C68     C    0.67030   0.78450   0.54280   1.000
    C69     C    0.32970   0.78450   0.45720   1.000
    C70     C    0.32970   0.21550   0.54280   1.000
    C71     C    0.45720   0.67030   0.21550   1.000
    C72     C    0.54280   0.67030   0.78450   1.000
    C73     C    0.45720   0.32970   0.78450   1.000
    C74     C    0.54280   0.32970   0.21550   1.000
    C75     C    0.95720   0.71550   0.17030   1.000
    C76     C    0.04280   0.28450   0.17030   1.000
    C77     C    0.95720   0.28450   0.82970   1.000
    C78     C    0.04280   0.71550   0.82970   1.000
    C79     C    0.71550   0.17030   0.95720   1.000
    C80     C    0.28450   0.17030   0.04280   1.000
    C81     C    0.28450   0.82970   0.95720   1.000
    C82     C    0.71550   0.82970   0.04280   1.000
    C83     C    0.17030   0.95720   0.71550   1.000
    C84     C    0.17030   0.04280   0.28450   1.000
    C85     C    0.82970   0.95720   0.28450   1.000
    C86     C    0.82970   0.04280   0.71550   1.000
    C87     C    0.56690   0.67630   0.20920   1.000
    C88     C    0.43310   0.67630   0.79080   1.000
    C89     C    0.53980   0.60810   0.79110   1.000
    C90     C    0.79080   0.43310   0.67630   1.000
    C91     C    0.79080   0.56690   0.32370   1.000
    C92     C    0.20920   0.43310   0.32370   1.000
    C93     C    0.67630   0.20920   0.56690   1.000
    C94     C    0.67630   0.79080   0.43310   1.000
    C95     C    0.32370   0.79080   0.56690   1.000
    C96     C    0.32370   0.20920   0.43310   1.000
    C97     C    0.93310   0.29080   0.17630   1.000
    C98     C    0.06690   0.29080   0.82370   1.000
    C99     C    0.93310   0.70920   0.82370   1.000
    C100    C    0.70920   0.17630   0.06690   1.000
    C101    C    0.29080   0.17630   0.93310   1.000
    C102    C    0.29080   0.82370   0.06690   1.000
    C103    C    0.70920   0.82370   0.93310   1.000
    C104    C    0.17630   0.06690   0.70920   1.000
    C105    C    0.17630   0.93310   0.29080   1.000
    C106    C    0.82370   0.06690   0.29080   1.000
    C107    C    0.82370   0.93310   0.70920   1.000
    C108    C    0.79110   0.53980   0.60810   1.000
    C109    C    0.79110   0.46020   0.39190   1.000
    C110    C    0.20890   0.53980   0.39190   1.000
    C111    C    0.60810   0.20890   0.46020   1.000
    C112    C    0.60810   0.79110   0.53980   1.000
    C113    C    0.39190   0.79110   0.46020   1.000
    C114    C    0.39190   0.20890   0.53980   1.000
    C115    C    0.46020   0.60810   0.20890   1.000
    C116    C    0.46020   0.39190   0.79110   1.000
    C117    C    0.53980   0.39190   0.20890   1.000
    C118    C    0.96020   0.70890   0.10810   1.000
    C119    C    0.03980   0.29110   0.10810   1.000
    C120    C    0.96020   0.29110   0.89190   1.000
    C121    C    0.03980   0.70890   0.89190   1.000
    C122    C    0.70890   0.10810   0.96020   1.000
    C123    C    0.29110   0.10810   0.03980   1.000
    C124    C    0.29110   0.89190   0.96020   1.000
    C125    C    0.70890   0.89190   0.03980   1.000
    C126    C    0.10810   0.96020   0.70890   1.000
    C127    C    0.10810   0.03980   0.29110   1.000
    C128    C    0.89190   0.96020   0.29110   1.000
    C129    C    0.89190   0.03980   0.70890   1.000
    H130    H    0.79235   0.57559   0.58511   1.000
    H131    H    0.79235   0.42441   0.41489   1.000
    H132    H    0.20765   0.57559   0.41489   1.000
    H133    H    0.58511   0.20765   0.42441   1.000
    H134    H    0.58511   0.79235   0.57559   1.000
    H135    H    0.41489   0.79235   0.42441   1.000
    H136    H    0.41489   0.20765   0.57559   1.000
    H137    H    0.42441   0.58511   0.20765   1.000
    H138    H    0.57559   0.58511   0.79235   1.000
    H139    H    0.42441   0.41489   0.79235   1.000
    H140    H    0.57559   0.41489   0.20765   1.000
    H141    H    0.92441   0.70765   0.08511   1.000
    H142    H    0.07559   0.29235   0.08511   1.000
    H143    H    0.92441   0.29235   0.91489   1.000
    H144    H    0.07559   0.70765   0.91489   1.000
    H145    H    0.70765   0.08511   0.92441   1.000
    H146    H    0.29235   0.08511   0.07559   1.000
    H147    H    0.29235   0.91489   0.92441   1.000
    H148    H    0.70765   0.91489   0.07559   1.000
    H149    H    0.08511   0.92441   0.70765   1.000
    H150    H    0.08511   0.07559   0.29235   1.000
    H151    H    0.91489   0.92441   0.29235   1.000
    H152    H    0.91489   0.07559   0.70765   1.000
    C153    C    0.79590   0.48410   0.57970   1.000
    C154    C    0.79590   0.51590   0.42030   1.000
    C155    C    0.20410   0.48410   0.42030   1.000
    C156    C    0.57970   0.20410   0.51590   1.000
    C157    C    0.57970   0.79590   0.48410   1.000
    C158    C    0.42030   0.79590   0.51590   1.000
    C159    C    0.42030   0.20410   0.48410   1.000
    C160    C    0.51590   0.57970   0.20410   1.000
    C161    C    0.48410   0.57970   0.79590   1.000
    C162    C    0.51590   0.42030   0.79590   1.000
    C163    C    0.48410   0.42030   0.20410   1.000
    C164    C    0.01590   0.70410   0.07970   1.000
    C165    C    0.98410   0.29590   0.07970   1.000
    C166    C    0.01590   0.29590   0.92030   1.000
    C167    C    0.98410   0.70410   0.92030   1.000
    C168    C    0.70410   0.07970   0.01590   1.000
    C169    C    0.29590   0.07970   0.98410   1.000
    C170    C    0.29590   0.92030   0.01590   1.000
    C171    C    0.70410   0.92030   0.98410   1.000
    C172    C    0.07970   0.01590   0.70410   1.000
    C173    C    0.07970   0.98410   0.29590   1.000
    C174    C    0.92030   0.01590   0.29590   1.000
    C175    C    0.92030   0.98410   0.70410   1.000
    C176    C    0.79680   0.43050   0.61290   1.000
    C177    C    0.79680   0.56950   0.38710   1.000
    C178    C    0.20320   0.43050   0.38710   1.000
    C179    C    0.61290   0.20320   0.56950   1.000
    C180    C    0.61290   0.79680   0.43050   1.000
    C181    C    0.38710   0.79680   0.56950   1.000
    C182    C    0.38710   0.20320   0.43050   1.000
    C183    C    0.56950   0.61290   0.20320   1.000
    C184    C    0.43050   0.61290   0.79680   1.000
    C185    C    0.56950   0.38710   0.79680   1.000
    C186    C    0.43050   0.38710   0.20320   1.000
    C187    C    0.06950   0.70320   0.11290   1.000
    C188    C    0.93050   0.29680   0.11290   1.000
    C189    C    0.06950   0.29680   0.88710   1.000
    C190    C    0.93050   0.70320   0.88710   1.000
    C191    C    0.70320   0.11290   0.06950   1.000
    C192    C    0.29680   0.11290   0.93050   1.000
    C193    C    0.29680   0.88710   0.06950   1.000
    C194    C    0.70320   0.88710   0.93050   1.000
    C195    C    0.11290   0.06950   0.70320   1.000
    C196    C    0.11290   0.93050   0.29680   1.000
    C197    C    0.88710   0.06950   0.29680   1.000
    C198    C    0.88710   0.93050   0.70320   1.000
    H199    H    0.80136   0.39314   0.59323   1.000
    H200    H    0.80136   0.60686   0.40677   1.000
    H201    H    0.19864   0.39314   0.40677   1.000
    H202    H    0.59323   0.19864   0.60686   1.000
    H203    H    0.59323   0.80136   0.39314   1.000
    H204    H    0.40677   0.80136   0.60686   1.000
    H205    H    0.40677   0.19864   0.39314   1.000
    H206    H    0.60686   0.59323   0.19864   1.000
    H207    H    0.39314   0.59323   0.80136   1.000
    H208    H    0.60686   0.40677   0.80136   1.000
    H209    H    0.30136   0.09323   0.89314   1.000
    H210    H    0.30136   0.90677   0.10686   1.000
    H211    H    0.69864   0.90677   0.89314   1.000
    H212    H    0.09323   0.10686   0.69864   1.000
    H213    H    0.09323   0.89314   0.30136   1.000
    H214    H    0.90677   0.10686   0.30136   1.000
    H215    H    0.90677   0.89314   0.69864   1.000
loop_
    _geom_bond_atom_site_label_1
    _geom_bond_atom_site_label_2
    _geom_bond_distance
    _geom_bond_site_symmetry_2
    _ccdc_geom_bond_type
    H52    C29       0.93071      .   S
    H54    C31       0.93071      .   S
    C29    C100      1.38941      .   S
    C29    C79       1.38501  1_554   S
    C31    C102      1.38941      .   S
    C31    C81       1.38501  1_554   S
    C168   C191      1.37983      .   S
    C168   C122      1.37218  1_554   S
    C170   C193      1.37983      .   S
    C170   C124      1.37218  1_554   S
    C123   C80       1.37032      .   S
    C123   H146      0.93113      .   S
    C123   C169      1.37218  1_554   S
    C125   C82       1.37032      .   S
    C125   H148      0.93113      .   S
    C125   C171      1.37218  1_554   S
    C82    C32       1.38501  1_554   S
    C80    C30       1.38501  1_554   S
    C100   C191      1.39472      .   S
    C102   C193      1.39472      .   S
    C191   H61       0.92930      .   S
    C193   H210      0.92930      .   S
    C164   C118      1.37218  1_455   S
    C164   C187      1.37983      .   S
    C165   C119      1.37218  1_655   S
    C165   C188      1.37983      .   S
    H141   C118      0.93113      .   S
    H142   C119      0.93113      .   S
    H58    C188      0.92930      .   S
    H57    C187      0.92930      .   S
    C118   C75       1.37032      .   S
    C119   C76       1.37032      .   S
    C187   C13       1.39472      .   S
    C188   C97       1.39472      .   S
    C76    C26       1.38501  1_455   S
    C75    C25       1.38501  1_655   S
    C97    C26       1.38941      .   S
    C13    C25       1.38941      .   S
    H206   C183      0.92930      .   S
    H56    C186      0.92930      .   S
    C186   C163      1.37983      .   S
    C186   C12       1.39472      .   S
    C183   C160      1.37983      .   S
    C183   C87       1.39472      .   S
    C160   C115      1.37218      .   S
    C163   C117      1.37218      .   S
    C25    H48       0.93071      .   S
    C26    H49       0.93071      .   S
    H140   C117      0.93113      .   S
    H137   C115      0.93113      .   S
    C117   C74       1.37032      .   S
    C115   C71       1.37032      .   S
    C12    C24       1.38941      .   S
    C87    C21       1.38941      .   S
    C71    C21       1.38501      .   S
    C74    C24       1.38501      .   S
    C24    H47       0.93071      .   S
    C21    H44       0.93071      .   S
    H39    C16       0.93071      .   S
    H38    C15       0.93071      .   S
    H62    C35       0.93071      .   S
    H10    C34       0.93071      .   S
    C35    C85       1.38501  1_545   S
    C35    C106      1.38941      .   S
    C34    C84       1.38501  1_565   S
    C34    C105      1.38941      .   S
    C85    C128      1.37032      .   S
    C84    C127      1.37032      .   S
    C106   C197      1.39472      .   S
    C105   C196      1.39472      .   S
    C127   H150      0.93113      .   S
    C127   C173      1.37218  1_545   S
    C128   H151      0.93113      .   S
    C128   C174      1.37218  1_565   S
    C16    C92       1.38941      .   S
    C16    C66       1.38501      .   S
    C15    C91       1.38941      .   S
    C15    C65       1.38501      .   S
    C174   C197      1.37983      .   S
    C173   C196      1.37983      .   S
    C196   H213      0.92930      .   S
    C197   H214      0.92930      .   S
    C92    C178      1.39472      .   S
    C91    C177      1.39472      .   S
    C65    C109      1.37032      .   S
    C66    C110      1.37032      .   S
    C178   H201      0.92930      .   S
    C178   C155      1.37983      .   S
    C177   H200      0.92930      .   S
    C177   C154      1.37983      .   S
    C110   H132      0.93113      .   S
    C110   C155      1.37218      .   S
    C109   H131      0.93113      .   S
    C109   C154      1.37218      .   S
    H203   C180      0.92930      .   S
    H205   C182      0.92930      .   S
    H135   C113      0.93113      .   S
    H133   C111      0.93113      .   S
    C182   C96       1.39472      .   S
    C182   C159      1.37983      .   S
    C180   C94       1.39472      .   S
    C180   C157      1.37983      .   S
    C94    C18       1.38941      .   S
    C96    C20       1.38941      .   S
    C67    C111      1.37032      .   S
    C67    C17       1.38501      .   S
    C69    C113      1.37032      .   S
    C69    C19       1.38501      .   S
    C111   C156      1.37218      .   S
    C113   C158      1.37218      .   S
    C157   C112      1.37218      .   S
    C159   C114      1.37218      .   S
    C18    H41       0.93071      .   S
    C18    C68       1.38501      .   S
    C20    H43       0.93071      .   S
    C20    C70       1.38501      .   S
    H42    C19       0.93071      .   S
    H40    C17       0.93071      .   S
    C17    C93       1.38941      .   S
    C19    C95       1.38941      .   S
    C156   C179      1.37983      .   S
    C158   C181      1.37983      .   S
    C114   C70       1.37032      .   S
    C114   H136      0.93113      .   S
    C112   C68       1.37032      .   S
    C112   H134      0.93113      .   S
    C93    C179      1.39472      .   S
    C95    C181      1.39472      .   S
    C179   H202      0.92930      .   S
    C181   H204      0.92930      .   S
    C153   C108      1.37218      .   S
    C153   C176      1.37983      .   S
    C6     C4        1.37218      .   S
    C6     C7        1.37983      .   S
    H5     C4        0.93113      .   S
    H130   C108      0.93113      .   S
    H199   C176      0.92930      .   S
    H8     C7        0.92930      .   S
    C4     C2        1.37032      .   S
    C108   C64       1.37032      .   S
    C176   C90       1.39472      .   S
    C7     C3        1.39472      .   S
    C64    C14       1.38501      .   S
    C2     C0        1.38501      .   S
    C90    C14       1.38941      .   S
    C3     C0        1.38941      .   S
    H215   C198      0.92930      .   S
    H212   C195      0.92930      .   S
    C198   C175      1.37983      .   S
    C198   C107      1.39472      .   S
    C195   C172      1.37983      .   S
    C195   C104      1.39472      .   S
    C172   C126      1.37218  1_545   S
    C175   C129      1.37218  1_565   S
    C14    H37       0.93071      .   S
    C0     H1        0.93071      .   S
    H152   C129      0.93113      .   S
    H149   C126      0.93113      .   S
    C126   C83       1.37032      .   S
    C129   C86       1.37032      .   S
    C107   C36       1.38941      .   S
    C104   C33       1.38941      .   S
    C83    C33       1.38501  1_565   S
    C86    C36       1.38501  1_545   S
    C33    H9        0.93071      .   S
    C36    H63       0.93071      .   S
    H50    C27       0.93071      .   S
    H51    C28       0.93071      .   S
    H46    C23       0.93071      .   S
    H45    C22       0.93071      .   S
    C23    C73       1.38501      .   S
    C23    C11       1.38941      .   S
    C22    C72       1.38501      .   S
    C22    C88       1.38941      .   S
    C72    C89       1.37032      .   S
    C73    C116      1.37032      .   S
    C88    C184      1.39472      .   S
    C11    C185      1.39472      .   S
    C89    H138      0.93113      .   S
    C89    C161      1.37218      .   S
    C116   H139      0.93113      .   S
    C116   C162      1.37218      .   S
    C27    C98       1.38941      .   S
    C27    C77       1.38501  1_455   S
    C28    C99       1.38941      .   S
    C28    C78       1.38501  1_655   S
    C162   C185      1.37983      .   S
    C161   C184      1.37983      .   S
    C184   H207      0.92930      .   S
    C185   H208      0.92930      .   S
    C99    C190      1.39472      .   S
    C98    C189      1.39472      .   S
    C77    C120      1.37032      .   S
    C78    C121      1.37032      .   S
    C190   H60       0.92930      .   S
    C190   C167      1.37983      .   S
    C189   H59       0.92930      .   S
    C189   C166      1.37983      .   S
    C120   H143      0.93113      .   S
    C120   C166      1.37218  1_655   S
    C121   H144      0.93113      .   S
    C121   C167      1.37218  1_455   S
    H209   C192      0.92930      .   S
    H211   C194      0.92930      .   S
    H145   C122      0.93113      .   S
    H147   C124      0.93113      .   S
    C192   C101      1.39472      .   S
    C192   C169      1.37983      .   S
    C194   C103      1.39472      .   S
    C194   C171      1.37983      .   S
    C101   C30       1.38941      .   S
    C103   C32       1.38941      .   S
    C79    C122      1.37032      .   S
    C81    C124      1.37032      .   S
    C30    H53       0.93071      .   S
    C32    H55       0.93071      .   S
