# CIF file generated by openbabel 2.4.90, see http://openbabel.sf.net
data_I
_chemical_name_common ''
_cell_length_a 21.8827
_cell_length_b 21.8827
_cell_length_c 21.8827
_cell_angle_alpha 90
_cell_angle_beta 90
_cell_angle_gamma 90
_space_group_name_H-M_alt 'P 1'
_space_group_name_Hall 'P 1'
loop_
    _symmetry_equiv_pos_as_xyz
    x,y,z
loop_
    _atom_site_label
    _atom_site_type_symbol
    _atom_site_fract_x
    _atom_site_fract_y
    _atom_site_fract_z
    _atom_site_occupancy
    O0      O    0.20410   0.34985   0.66800   1.000
    O1      O    0.22500   0.62535   0.76490   1.000
    O2      O    0.24470   0.39254   0.75233   1.000
    O3      O    0.18810   0.67056   0.68180   1.000
    C4      C    0.22150   0.39510   0.69940   1.000
    C5      C    0.20860   0.62490   0.71050   1.000
    O6      O    0.24044   0.75956   0.75956   1.000
    O7      O    0.23820   0.62560   0.89020   1.000
    Fe8     Fe   0.23949   0.69773   0.81804   1.000
    Fe9     Fe   0.76051   0.30227   0.81804   1.000
    Fe10    Fe   0.76051   0.69773   0.18196   1.000
    Fe11    Fe   0.23949   0.30227   0.18196   1.000
    Fe12    Fe   0.81804   0.23949   0.69773   1.000
    Fe13    Fe   0.81804   0.76051   0.30227   1.000
    Fe14    Fe   0.18196   0.76051   0.69773   1.000
    Fe15    Fe   0.18196   0.23949   0.30227   1.000
    Fe16    Fe   0.69773   0.81804   0.23949   1.000
    Fe17    Fe   0.30227   0.81804   0.76051   1.000
    Fe18    Fe   0.69773   0.18196   0.76051   1.000
    Fe19    Fe   0.30227   0.18196   0.23949   1.000
    Fe20    Fe   0.19773   0.73949   0.31804   1.000
    Fe21    Fe   0.80227   0.26051   0.31804   1.000
    Fe22    Fe   0.19773   0.26051   0.68196   1.000
    Fe23    Fe   0.80227   0.73949   0.68196   1.000
    Fe24    Fe   0.73949   0.31804   0.19773   1.000
    Fe25    Fe   0.26051   0.31804   0.80227   1.000
    Fe26    Fe   0.26051   0.68196   0.19773   1.000
    Fe27    Fe   0.73949   0.68196   0.80227   1.000
    Fe28    Fe   0.31804   0.19773   0.73949   1.000
    Fe29    Fe   0.31804   0.80227   0.26051   1.000
    Fe30    Fe   0.68196   0.19773   0.26051   1.000
    Fe31    Fe   0.68196   0.80227   0.73949   1.000
    O32     O    0.79590   0.65015   0.66800   1.000
    O33     O    0.79590   0.34985   0.33200   1.000
    O34     O    0.20410   0.65015   0.33200   1.000
    O35     O    0.66800   0.20410   0.34985   1.000
    O36     O    0.66800   0.79590   0.65015   1.000
    O37     O    0.33200   0.79590   0.34985   1.000
    O38     O    0.33200   0.20410   0.65015   1.000
    O39     O    0.34985   0.66800   0.20410   1.000
    O40     O    0.65015   0.66800   0.79590   1.000
    O41     O    0.34985   0.33200   0.79590   1.000
    O42     O    0.65015   0.33200   0.20410   1.000
    O43     O    0.84985   0.70410   0.16800   1.000
    O44     O    0.15015   0.29590   0.16800   1.000
    O45     O    0.84985   0.29590   0.83200   1.000
    O46     O    0.15015   0.70410   0.83200   1.000
    O47     O    0.70410   0.16800   0.84985   1.000
    O48     O    0.29590   0.16800   0.15015   1.000
    O49     O    0.29590   0.83200   0.84985   1.000
    O50     O    0.70410   0.83200   0.15015   1.000
    O51     O    0.16800   0.84985   0.70410   1.000
    O52     O    0.16800   0.15015   0.29590   1.000
    O53     O    0.83200   0.84985   0.29590   1.000
    O54     O    0.83200   0.15015   0.70410   1.000
    O55     O    0.77500   0.37465   0.76490   1.000
    O56     O    0.77500   0.62535   0.23510   1.000
    O57     O    0.22500   0.37465   0.23510   1.000
    O58     O    0.76490   0.22500   0.62535   1.000
    O59     O    0.76490   0.77500   0.37465   1.000
    O60     O    0.23510   0.77500   0.62535   1.000
    O61     O    0.23510   0.22500   0.37465   1.000
    O62     O    0.62535   0.76490   0.22500   1.000
    O63     O    0.37465   0.76490   0.77500   1.000
    O64     O    0.62535   0.23510   0.77500   1.000
    O65     O    0.37465   0.23510   0.22500   1.000
    O66     O    0.12535   0.72500   0.26490   1.000
    O67     O    0.87465   0.27500   0.26490   1.000
    O68     O    0.12535   0.27500   0.73510   1.000
    O69     O    0.87465   0.72500   0.73510   1.000
    O70     O    0.72500   0.26490   0.12535   1.000
    O71     O    0.27500   0.26490   0.87465   1.000
    O72     O    0.27500   0.73510   0.12535   1.000
    O73     O    0.72500   0.73510   0.87465   1.000
    O74     O    0.26490   0.12535   0.72500   1.000
    O75     O    0.26490   0.87465   0.27500   1.000
    O76     O    0.73510   0.12535   0.27500   1.000
    O77     O    0.73510   0.87465   0.72500   1.000
    O78     O    0.75530   0.60746   0.75233   1.000
    O79     O    0.75530   0.39254   0.24767   1.000
    O80     O    0.24470   0.60746   0.24767   1.000
    O81     O    0.75233   0.24470   0.39254   1.000
    O82     O    0.75233   0.75530   0.60746   1.000
    O83     O    0.24767   0.75530   0.39254   1.000
    O84     O    0.24767   0.24470   0.60746   1.000
    O85     O    0.39254   0.75233   0.24470   1.000
    O86     O    0.60746   0.75233   0.75530   1.000
    O87     O    0.39254   0.24767   0.75530   1.000
    O88     O    0.60746   0.24767   0.24470   1.000
    O89     O    0.89254   0.74470   0.25233   1.000
    O90     O    0.10746   0.25530   0.25233   1.000
    O91     O    0.89254   0.25530   0.74767   1.000
    O92     O    0.10746   0.74470   0.74767   1.000
    O93     O    0.74470   0.25233   0.89254   1.000
    O94     O    0.25530   0.25233   0.10746   1.000
    O95     O    0.25530   0.74767   0.89254   1.000
    O96     O    0.74470   0.74767   0.10746   1.000
    O97     O    0.25233   0.89254   0.74470   1.000
    O98     O    0.25233   0.10746   0.25530   1.000
    O99     O    0.74767   0.89254   0.25530   1.000
    O100    O    0.74767   0.10746   0.74470   1.000
    O101    O    0.81190   0.32944   0.68180   1.000
    O102    O    0.81190   0.67056   0.31820   1.000
    O103    O    0.18810   0.32944   0.31820   1.000
    O104    O    0.68180   0.18810   0.67056   1.000
    O105    O    0.68180   0.81190   0.32944   1.000
    O106    O    0.31820   0.81190   0.67056   1.000
    O107    O    0.31820   0.18810   0.32944   1.000
    O108    O    0.67056   0.68180   0.18810   1.000
    O109    O    0.32944   0.68180   0.81190   1.000
    O110    O    0.67056   0.31820   0.81190   1.000
    O111    O    0.32944   0.31820   0.18810   1.000
    O112    O    0.17056   0.68810   0.18180   1.000
    O113    O    0.82944   0.31190   0.18180   1.000
    O114    O    0.17056   0.31190   0.81820   1.000
    O115    O    0.82944   0.68810   0.81820   1.000
    O116    O    0.68810   0.18180   0.17056   1.000
    O117    O    0.31190   0.18180   0.82944   1.000
    O118    O    0.31190   0.81820   0.17056   1.000
    O119    O    0.68810   0.81820   0.82944   1.000
    O120    O    0.18180   0.17056   0.68810   1.000
    O121    O    0.18180   0.82944   0.31190   1.000
    O122    O    0.81820   0.17056   0.31190   1.000
    O123    O    0.81820   0.82944   0.68810   1.000
    C124    C    0.77850   0.60490   0.69940   1.000
    C125    C    0.77850   0.39510   0.30060   1.000
    C126    C    0.22150   0.60490   0.30060   1.000
    C127    C    0.69940   0.22150   0.39510   1.000
    C128    C    0.69940   0.77850   0.60490   1.000
    C129    C    0.30060   0.77850   0.39510   1.000
    C130    C    0.30060   0.22150   0.60490   1.000
    C131    C    0.39510   0.69940   0.22150   1.000
    C132    C    0.60490   0.69940   0.77850   1.000
    C133    C    0.39510   0.30060   0.77850   1.000
    C134    C    0.60490   0.30060   0.22150   1.000
    C135    C    0.89510   0.72150   0.19940   1.000
    C136    C    0.10490   0.27850   0.19940   1.000
    C137    C    0.89510   0.27850   0.80060   1.000
    C138    C    0.10490   0.72150   0.80060   1.000
    C139    C    0.72150   0.19940   0.89510   1.000
    C140    C    0.27850   0.19940   0.10490   1.000
    C141    C    0.27850   0.80060   0.89510   1.000
    C142    C    0.72150   0.80060   0.10490   1.000
    C143    C    0.19940   0.89510   0.72150   1.000
    C144    C    0.19940   0.10490   0.27850   1.000
    C145    C    0.80060   0.89510   0.27850   1.000
    C146    C    0.80060   0.10490   0.72150   1.000
    C147    C    0.79140   0.37510   0.71050   1.000
    C148    C    0.79140   0.62490   0.28950   1.000
    C149    C    0.20860   0.37510   0.28950   1.000
    C150    C    0.71050   0.20860   0.62490   1.000
    C151    C    0.71050   0.79140   0.37510   1.000
    C152    C    0.28950   0.79140   0.62490   1.000
    C153    C    0.28950   0.20860   0.37510   1.000
    C154    C    0.62490   0.71050   0.20860   1.000
    C155    C    0.37510   0.71050   0.79140   1.000
    C156    C    0.62490   0.28950   0.79140   1.000
    C157    C    0.37510   0.28950   0.20860   1.000
    C158    C    0.12490   0.70860   0.21050   1.000
    C159    C    0.87510   0.29140   0.21050   1.000
    C160    C    0.12490   0.29140   0.78950   1.000
    C161    C    0.87510   0.70860   0.78950   1.000
    C162    C    0.70860   0.21050   0.12490   1.000
    C163    C    0.29140   0.21050   0.87510   1.000
    C164    C    0.29140   0.78950   0.12490   1.000
    C165    C    0.70860   0.78950   0.87510   1.000
    C166    C    0.21050   0.12490   0.70860   1.000
    C167    C    0.21050   0.87510   0.29140   1.000
    C168    C    0.78950   0.12490   0.29140   1.000
    C169    C    0.78950   0.87510   0.70860   1.000
    O170    O    0.75956   0.24044   0.75956   1.000
    O171    O    0.75956   0.75956   0.24044   1.000
    O172    O    0.24044   0.24044   0.24044   1.000
    O173    O    0.25956   0.74044   0.25956   1.000
    O174    O    0.74044   0.25956   0.25956   1.000
    O175    O    0.25956   0.25956   0.74044   1.000
    O176    O    0.74044   0.74044   0.74044   1.000
    O177    O    0.76180   0.37440   0.89020   1.000
    O178    O    0.76180   0.62560   0.10980   1.000
    O179    O    0.23820   0.37440   0.10980   1.000
    O180    O    0.89020   0.23820   0.62560   1.000
    O181    O    0.89020   0.76180   0.37440   1.000
    O182    O    0.10980   0.76180   0.62560   1.000
    O183    O    0.10980   0.23820   0.37440   1.000
    O184    O    0.62560   0.89020   0.23820   1.000
    O185    O    0.37440   0.89020   0.76180   1.000
    O186    O    0.62560   0.10980   0.76180   1.000
    O187    O    0.37440   0.10980   0.23820   1.000
    O188    O    0.12560   0.73820   0.39020   1.000
    O189    O    0.87440   0.26180   0.39020   1.000
    O190    O    0.12560   0.26180   0.60980   1.000
    O191    O    0.87440   0.73820   0.60980   1.000
    O192    O    0.73820   0.39020   0.12560   1.000
    O193    O    0.26180   0.39020   0.87440   1.000
    O194    O    0.26180   0.60980   0.12560   1.000
    O195    O    0.73820   0.60980   0.87440   1.000
    O196    O    0.39020   0.12560   0.73820   1.000
    O197    O    0.39020   0.87440   0.26180   1.000
    O198    O    0.60980   0.12560   0.26180   1.000
    O199    O    0.60980   0.87440   0.73820   1.000
    Og200   Og   0.21950   0.41580   0.68970   1.000
    Og201   Og   0.20880   0.60557   0.69910   1.000
    Og202   Og   0.78050   0.58420   0.68970   1.000
    Og203   Og   0.78050   0.41580   0.31030   1.000
    Og204   Og   0.21950   0.58420   0.31030   1.000
    Og205   Og   0.68970   0.21950   0.41580   1.000
    Og206   Og   0.68970   0.78050   0.58420   1.000
    Og207   Og   0.31030   0.78050   0.41580   1.000
    Og208   Og   0.31030   0.21950   0.58420   1.000
    Og209   Og   0.41580   0.68970   0.21950   1.000
    Og210   Og   0.58420   0.68970   0.78050   1.000
    Og211   Og   0.41580   0.31030   0.78050   1.000
    Og212   Og   0.58420   0.31030   0.21950   1.000
    Og213   Og   0.91580   0.71950   0.18970   1.000
    Og214   Og   0.08420   0.28050   0.18970   1.000
    Og215   Og   0.91580   0.28050   0.81030   1.000
    Og216   Og   0.08420   0.71950   0.81030   1.000
    Og217   Og   0.71950   0.18970   0.91580   1.000
    Og218   Og   0.28050   0.18970   0.08420   1.000
    Og219   Og   0.28050   0.81030   0.91580   1.000
    Og220   Og   0.71950   0.81030   0.08420   1.000
    Og221   Og   0.18970   0.91580   0.71950   1.000
    Og222   Og   0.18970   0.08420   0.28050   1.000
    Og223   Og   0.81030   0.91580   0.28050   1.000
    Og224   Og   0.81030   0.08420   0.71950   1.000
    Og225   Og   0.79120   0.39443   0.69910   1.000
    Og226   Og   0.79120   0.60557   0.30090   1.000
    Og227   Og   0.20880   0.39443   0.30090   1.000
    Og228   Og   0.69910   0.20880   0.60557   1.000
    Og229   Og   0.69910   0.79120   0.39443   1.000
    Og230   Og   0.30090   0.79120   0.60557   1.000
    Og231   Og   0.30090   0.20880   0.39443   1.000
    Og232   Og   0.60557   0.69910   0.20880   1.000
    Og233   Og   0.39443   0.69910   0.79120   1.000
    Og234   Og   0.60557   0.30090   0.79120   1.000
    Og235   Og   0.39443   0.30090   0.20880   1.000
    Og236   Og   0.10557   0.70880   0.19910   1.000
    Og237   Og   0.89443   0.29120   0.19910   1.000
    Og238   Og   0.10557   0.29120   0.80090   1.000
    Og239   Og   0.89443   0.70880   0.80090   1.000
    Og240   Og   0.70880   0.19910   0.10557   1.000
    Og241   Og   0.29120   0.19910   0.89443   1.000
    Og242   Og   0.29120   0.80090   0.10557   1.000
    Og243   Og   0.70880   0.80090   0.89443   1.000
    Og244   Og   0.19910   0.10557   0.70880   1.000
    Og245   Og   0.19910   0.89443   0.29120   1.000
    Og246   Og   0.80090   0.10557   0.29120   1.000
    Og247   Og   0.80090   0.89443   0.70880   1.000
loop_
    _geom_bond_atom_site_label_1
    _geom_bond_atom_site_label_2
    _geom_bond_distance
    _geom_bond_site_symmetry_2
    _ccdc_geom_bond_type
    C140   O94       1.26587      .   S
    C140   O48       1.26396      .   S
    C142   O96       1.26587      .   S
    C142   O50       1.26396      .   S
    O94    Fe11      1.99291      .   S
    O96    Fe10      1.99291      .   S
    O179   Fe11      2.23284      .   S
    O178   Fe10      2.23284      .   S
    C164   O72       1.24338      .   S
    C164   O118      1.26253      .   S
    C162   O70       1.24338      .   S
    C162   O116      1.26253      .   S
    O72    Fe26      1.99033      .   S
    O70    Fe24      1.99033      .   S
    O194   Fe26      2.23284      .   S
    O192   Fe24      2.23284      .   S
    O50    Fe16      1.98363      .   S
    O48    Fe19      1.98363      .   S
    O44    Fe11      1.98363      .   S
    O44    C136      1.26396      .   S
    O43    Fe10      1.98363      .   S
    O43    C135      1.26396      .   S
    O116   Fe30      2.00349      .   S
    O118   Fe29      2.00349      .   S
    O113   Fe24      2.00349      .   S
    O113   C159      1.26253      .   S
    O112   Fe26      2.00349      .   S
    O112   C158      1.26253      .   S
    Fe11   O111      2.00349      .   S
    Fe11   O57       1.99033      .   S
    Fe11   O172      1.86244      .   S
    Fe10   O108      2.00349      .   S
    Fe10   O56       1.99033      .   S
    O111   C157      1.26253      .   S
    O108   C154      1.26253      .   S
    Fe24   O42       1.98363      .   S
    Fe24   O79       1.99291      .   S
    Fe24   O174      1.86244      .   S
    Fe26   O39       1.98363      .   S
    Fe26   O80       1.99291      .   S
    Fe26   O173      1.86244      .   S
    C136   O90       1.26587      .   S
    C135   O89       1.26587      .   S
    O42    C134      1.26396      .   S
    O39    C131      1.26396      .   S
    C157   O65       1.24338      .   S
    C154   O62       1.24338      .   S
    C159   O67       1.24338      .   S
    C158   O66       1.24338      .   S
    C131   O85       1.26587      .   S
    C134   O88       1.26587      .   S
    O65    Fe19      1.99033      .   S
    O62    Fe16      1.99033      .   S
    O56    C148      1.24338      .   S
    O57    C149      1.24338      .   S
    O187   Fe19      2.23284      .   S
    O184   Fe16      2.23284      .   S
    Fe16   O171      1.86244      .   S
    Fe16   O99       1.99291      .   S
    Fe16   O105      2.00349      .   S
    Fe19   O98       1.99291      .   S
    Fe19   O107      2.00349      .   S
    O172   Fe15      1.86244      .   S
    O171   Fe13      1.86244      .   S
    O88    Fe30      1.99291      .   S
    O85    Fe29      1.99291      .   S
    O79    C125      1.26587      .   S
    O80    C126      1.26587      .   S
    O89    Fe13      1.99291      .   S
    O90    Fe15      1.99291      .   S
    O99    C145      1.26587      .   S
    O98    C144      1.26587      .   S
    O174   Fe30      1.86244      .   S
    O173   Fe20      1.86244      .   S
    Fe30   O198      2.23284      .   S
    Fe30   O76       1.99033      .   S
    Fe30   O35       1.98363      .   S
    Fe29   O197      2.23284      .   S
    Fe29   O75       1.99033      .   S
    Fe29   O37       1.98363      .   S
    O66    Fe20      1.99033      .   S
    O67    Fe21      1.99033      .   S
    O75    C167      1.24338      .   S
    O76    C168      1.24338      .   S
    C144   O52       1.26396      .   S
    C145   O53       1.26396      .   S
    C148   O102      1.26253      .   S
    C149   O103      1.26253      .   S
    C167   O121      1.26253      .   S
    C168   O122      1.26253      .   S
    O53    Fe13      1.98363      .   S
    O52    Fe15      1.98363      .   S
    C125   O33       1.26396      .   S
    C126   O34       1.26396      .   S
    Fe15   O103      2.00349      .   S
    Fe15   O183      2.23284      .   S
    Fe15   O61       1.99033      .   S
    Fe13   O102      2.00349      .   S
    Fe13   O181      2.23284      .   S
    Fe13   O59       1.99033      .   S
    O121   Fe20      2.00349      .   S
    O122   Fe21      2.00349      .   S
    Fe20   O34       1.98363      .   S
    Fe20   O188      2.23284      .   S
    Fe20   O83       1.99291      .   S
    Fe21   O33       1.98363      .   S
    Fe21   O189      2.23284      .   S
    Fe21   O81       1.99291      .   S
    O105   C151      1.26253      .   S
    O107   C153      1.26253      .   S
    O35    C127      1.26396      .   S
    O37    C129      1.26396      .   S
    O59    C151      1.24338      .   S
    O61    C153      1.24338      .   S
    O83    C129      1.26587      .   S
    O81    C127      1.26587      .   S
    C128   O82       1.26587      .   S
    C128   O36       1.26396      .   S
    C130   O84       1.26587      .   S
    C130   O38       1.26396      .   S
    O82    Fe23      1.99291      .   S
    O84    Fe22      1.99291      .   S
    O190   Fe22      2.23284      .   S
    O191   Fe23      2.23284      .   S
    C150   O58       1.24338      .   S
    C150   O104      1.26253      .   S
    C152   O60       1.24338      .   S
    C152   O106      1.26253      .   S
    O58    Fe12      1.99033      .   S
    O60    Fe14      1.99033      .   S
    O180   Fe12      2.23284      .   S
    O182   Fe14      2.23284      .   S
    O36    Fe31      1.98363      .   S
    O38    Fe28      1.98363      .   S
    O32    Fe23      1.98363      .   S
    O32    C124      1.26396      .   S
    O0     Fe22      1.98363      .   S
    O0     C4        1.26396      .   S
    O104   Fe18      2.00349      .   S
    O106   Fe17      2.00349      .   S
    O101   Fe12      2.00349      .   S
    O101   C147      1.26253      .   S
    O3     Fe14      2.00349      .   S
    O3     C5        1.26253      .   S
    Fe22   O120      2.00349      .   S
    Fe22   O68       1.99033      .   S
    Fe22   O175      1.86244      .   S
    Fe23   O123      2.00349      .   S
    Fe23   O69       1.99033      .   S
    O120   C166      1.26253      .   S
    O123   C169      1.26253      .   S
    Fe14   O51       1.98363      .   S
    Fe14   O92       1.99291      .   S
    Fe12   O54       1.98363      .   S
    Fe12   O91       1.99291      .   S
    C124   O78       1.26587      .   S
    C4     O2        1.26587      .   S
    O51    C143      1.26396      .   S
    O54    C146      1.26396      .   S
    C169   O77       1.24338      .   S
    C166   O74       1.24338      .   S
    C147   O55       1.24338      .   S
    C5     O1        1.24338      .   S
    C146   O100      1.26587      .   S
    C143   O97       1.26587      .   S
    O77    Fe31      1.99033      .   S
    O74    Fe28      1.99033      .   S
    O68    C160      1.24338      .   S
    O69    C161      1.24338      .   S
    O196   Fe28      2.23284      .   S
    O199   Fe31      2.23284      .   S
    Fe31   O176      1.86244      .   S
    Fe31   O86       1.99291      .   S
    Fe31   O119      2.00349      .   S
    Fe28   O87       1.99291      .   S
    Fe28   O117      2.00349      .   S
    O176   Fe27      1.86244      .   S
    O175   Fe25      1.86244      .   S
    O97    Fe17      1.99291      .   S
    O100   Fe18      1.99291      .   S
    O92    C138      1.26587      .   S
    O91    C137      1.26587      .   S
    O2     Fe25      1.99291      .   S
    O78    Fe27      1.99291      .   S
    O86    C132      1.26587      .   S
    O87    C133      1.26587      .   S
    O170   Fe18      1.86244      .   S
    O170   Fe9       1.86244      .   S
    O6     Fe17      1.86244      .   S
    O6     Fe8       1.86244      .   S
    Fe17   O185      2.23284      .   S
    Fe17   O63       1.99033      .   S
    Fe17   O49       1.98363      .   S
    Fe18   O186      2.23284      .   S
    Fe18   O64       1.99033      .   S
    Fe18   O47       1.98363      .   S
    O1     Fe8       1.99033      .   S
    O55    Fe9       1.99033      .   S
    O63    C155      1.24338      .   S
    O64    C156      1.24338      .   S
    C133   O41       1.26396      .   S
    C132   O40       1.26396      .   S
    C160   O114      1.26253      .   S
    C161   O115      1.26253      .   S
    C156   O110      1.26253      .   S
    C155   O109      1.26253      .   S
    O40    Fe27      1.98363      .   S
    O41    Fe25      1.98363      .   S
    C138   O46       1.26396      .   S
    C137   O45       1.26396      .   S
    Fe25   O114      2.00349      .   S
    Fe25   O193      2.23284      .   S
    Fe25   O71       1.99033      .   S
    Fe27   O115      2.00349      .   S
    Fe27   O195      2.23284      .   S
    Fe27   O73       1.99033      .   S
    O110   Fe9       2.00349      .   S
    O109   Fe8       2.00349      .   S
    Fe9    O45       1.98363      .   S
    Fe9    O177      2.23284      .   S
    Fe9    O93       1.99291      .   S
    Fe8    O46       1.98363      .   S
    Fe8    O7        2.23284      .   S
    Fe8    O95       1.99291      .   S
    O119   C165      1.26253      .   S
    O117   C163      1.26253      .   S
    O49    C141      1.26396      .   S
    O47    C139      1.26396      .   S
    O71    C163      1.24338      .   S
    O73    C165      1.24338      .   S
    O93    C139      1.26587      .   S
    O95    C141      1.26587      .   S
    O6     Fe14      1.86244      .   S
    O170   Fe12      1.86244      .   S
    O171   Fe10      1.86244      .   S
    O172   Fe19      1.86244      .   S
    O173   Fe29      1.86244      .   S
    O174   Fe21      1.86244      .   S
    O175   Fe28      1.86244      .   S
    O176   Fe23      1.86244      .   S
    C4     Og200     0.50215      .   S
    C5     Og201     0.49116      .   S
    C124   Og202     0.50215      .   S
    C125   Og203     0.50215      .   S
    C126   Og204     0.50215      .   S
    C127   Og205     0.50215      .   S
    C128   Og206     0.50215      .   S
    C129   Og207     0.50215      .   S
    C130   Og208     0.50215      .   S
    C131   Og209     0.50215      .   S
    C132   Og210     0.50215      .   S
    C133   Og211     0.50215      .   S
    C134   Og212     0.50215      .   S
    C135   Og213     0.50215      .   S
    C136   Og214     0.50215      .   S
    C137   Og215     0.50215      .   S
    C138   Og216     0.50215      .   S
    C139   Og217     0.50215      .   S
    C140   Og218     0.50215      .   S
    C141   Og219     0.50215      .   S
    C142   Og220     0.50215      .   S
    C143   Og221     0.50215      .   S
    C144   Og222     0.50215      .   S
    C145   Og223     0.50215      .   S
    C146   Og224     0.50215      .   S
    C147   Og225     0.49116      .   S
    C148   Og226     0.49116      .   S
    C149   Og227     0.49116      .   S
    C150   Og228     0.49116      .   S
    C151   Og229     0.49116      .   S
    C152   Og230     0.49116      .   S
    C153   Og231     0.49116      .   S
    C154   Og232     0.49116      .   S
    C155   Og233     0.49116      .   S
    C156   Og234     0.49116      .   S
    C157   Og235     0.49116      .   S
    C158   Og236     0.49116      .   S
    C159   Og237     0.49116      .   S
    C160   Og238     0.49116      .   S
    C161   Og239     0.49116      .   S
    C162   Og240     0.49116      .   S
    C163   Og241     0.49116      .   S
    C164   Og242     0.49116      .   S
    C165   Og243     0.49116      .   S
    C166   Og244     0.49116      .   S
    C167   Og245     0.49116      .   S
    C168   Og246     0.49116      .   S
    C169   Og247     0.49116      .   S
