# CIF file generated by openbabel 2.4.90, see http://openbabel.sf.net
data_I
_chemical_name_common ''
_cell_length_a 21.8827
_cell_length_b 21.8827
_cell_length_c 21.8827
_cell_angle_alpha 90
_cell_angle_beta 90
_cell_angle_gamma 90
_space_group_name_H-M_alt 'P 1'
_space_group_name_Hall 'P 1'
loop_
    _symmetry_equiv_pos_as_xyz
    x,y,z
loop_
    _atom_site_label
    _atom_site_type_symbol
    _atom_site_fract_x
    _atom_site_fract_y
    _atom_site_fract_z
    _atom_site_occupancy
    N0      N    0.79028   0.51333   0.35817   1.000
    N1      N    0.79028   0.48667   0.64183   1.000
    O2      O    0.79568   0.49170   0.54718   1.000
    N3      N    0.51333   0.64183   0.20972   1.000
    N4      N    0.48667   0.35817   0.20972   1.000
    O5      O    0.49170   0.45282   0.20432   1.000
    N6      N    0.98667   0.29028   0.14183   1.000
    N7      N    0.01333   0.29028   0.85817   1.000
    O8      O    0.00830   0.29568   0.95282   1.000
    N9      N    0.51333   0.35817   0.79028   1.000
    N10     N    0.48667   0.64183   0.79028   1.000
    O11     O    0.50830   0.45282   0.79568   1.000
    N12     N    0.14183   0.01333   0.70972   1.000
    N13     N    0.85817   0.98667   0.70972   1.000
    O14     O    0.95282   0.99170   0.70432   1.000
    N15     N    0.01333   0.70972   0.14183   1.000
    N16     N    0.98667   0.70972   0.85817   1.000
    O17     O    0.00830   0.70432   0.04718   1.000
    N18     N    0.29028   0.85817   0.01333   1.000
    N19     N    0.29028   0.14183   0.98667   1.000
    O20     O    0.29568   0.95282   0.00830   1.000
    N21     N    0.64183   0.79028   0.48667   1.000
    N22     N    0.35817   0.79028   0.51333   1.000
    O23     O    0.54718   0.79568   0.49170   1.000
    N24     N    0.64183   0.20972   0.51333   1.000
    N25     N    0.35817   0.20972   0.48667   1.000
    O26     O    0.45282   0.20432   0.49170   1.000
    N27     N    0.85817   0.01333   0.29028   1.000
    N28     N    0.14183   0.98667   0.29028   1.000
    O29     O    0.04718   0.99170   0.29568   1.000
    N30     N    0.20972   0.48667   0.35817   1.000
    N31     N    0.20972   0.51333   0.64183   1.000
    O32     O    0.20432   0.50830   0.54718   1.000
    N33     N    0.70972   0.14183   0.01333   1.000
    N34     N    0.70972   0.85817   0.98667   1.000
    O35     O    0.70432   0.04718   0.00830   1.000
    Zr36    Zr   0.74169   0.74169   0.74169   1.000
    O37     O    0.72550   0.78704   0.84354   1.000
    O38     O    0.84354   0.72550   0.78704   1.000
    O39     O    0.78704   0.84354   0.72550   1.000
    O40     O    0.63597   0.70251   0.76379   1.000
    O41     O    0.70251   0.76379   0.63597   1.000
    O42     O    0.76379   0.63597   0.70251   1.000
    Zr43    Zr   0.75831   0.24169   0.75831   1.000
    O44     O    0.79749   0.13597   0.73621   1.000
    O45     O    0.71296   0.22550   0.65646   1.000
    O46     O    0.65646   0.28704   0.77450   1.000
    O47     O    0.73621   0.20251   0.86403   1.000
    O48     O    0.86403   0.26379   0.79749   1.000
    O49     O    0.77450   0.34354   0.71296   1.000
    Zr50    Zr   0.24169   0.75831   0.75831   1.000
    O51     O    0.22550   0.65646   0.71296   1.000
    O52     O    0.20251   0.86403   0.73621   1.000
    O53     O    0.28704   0.77450   0.65646   1.000
    O54     O    0.34354   0.71296   0.77450   1.000
    O55     O    0.26379   0.79749   0.86403   1.000
    O56     O    0.13597   0.73621   0.79749   1.000
    Zr57    Zr   0.25831   0.74169   0.25831   1.000
    O58     O    0.21296   0.84354   0.27450   1.000
    O59     O    0.15646   0.72550   0.21296   1.000
    O60     O    0.23621   0.63597   0.29749   1.000
    O61     O    0.29749   0.76379   0.36403   1.000
    O62     O    0.27450   0.78704   0.15646   1.000
    O63     O    0.36403   0.70251   0.23621   1.000
    Zr64    Zr   0.24169   0.24169   0.24169   1.000
    O65     O    0.20251   0.13597   0.26379   1.000
    O66     O    0.28704   0.22550   0.34354   1.000
    O67     O    0.34354   0.28704   0.22550   1.000
    O68     O    0.22550   0.34354   0.28704   1.000
    O69     O    0.13597   0.26379   0.20251   1.000
    O70     O    0.26379   0.20251   0.13597   1.000
    Zr71    Zr   0.74169   0.25831   0.25831   1.000
    O72     O    0.84354   0.27450   0.21296   1.000
    O73     O    0.78704   0.15646   0.27450   1.000
    O74     O    0.70251   0.23621   0.36403   1.000
    O75     O    0.72550   0.21296   0.15646   1.000
    O76     O    0.76379   0.36403   0.29749   1.000
    O77     O    0.63597   0.29749   0.23621   1.000
    Zr78    Zr   0.75831   0.75831   0.24169   1.000
    O79     O    0.79749   0.86403   0.26379   1.000
    O80     O    0.73621   0.79749   0.13597   1.000
    O81     O    0.71296   0.77450   0.34354   1.000
    O82     O    0.86403   0.73621   0.20251   1.000
    O83     O    0.77450   0.65646   0.28704   1.000
    O84     O    0.65646   0.71296   0.22550   1.000
    Zr85    Zr   0.25831   0.25831   0.74169   1.000
    O86     O    0.21296   0.15646   0.72550   1.000
    O87     O    0.29749   0.23621   0.63597   1.000
    O88     O    0.27450   0.21296   0.84354   1.000
    O89     O    0.23621   0.36403   0.70251   1.000
    O90     O    0.15646   0.27450   0.78704   1.000
    O91     O    0.36403   0.29749   0.76379   1.000
loop_
    _geom_bond_atom_site_label_1
    _geom_bond_atom_site_label_2
    _geom_bond_distance
    _geom_bond_site_symmetry_2
    _ccdc_geom_bond_type
    N0     O2        4.16474      .   S
    N1     O2        2.07742      .   S
    N3     O5        4.16474      .   S
    N4     O5        2.07742      .   S
    N6     O8        4.16474  1_654   S
    N7     O8        2.07742      .   S
    N10    O11       4.16474      .   S
    N9     O11       2.07742      .   S
    N12    O14       4.16474  1_445   S
    N13    O14       2.07742      .   S
    N16    O17       4.16474  1_656   S
    N15    O17       2.07742      .   S
    N19    O20       4.16474  1_546   S
    N18    O20       2.07742      .   S
    N22    O23       4.16474      .   S
    N21    O23       2.07742      .   S
    N24    O26       4.16474      .   S
    N25    O26       2.07742      .   S
    N27    O29       4.16474  1_645   S
    N28    O29       2.07742      .   S
    N30    O32       4.16474      .   S
    N31    O32       2.07742      .   S
    N34    O35       4.16474  1_566   S
    N33    O35       2.07742      .   S
    Zr36   O37       2.46524      .   S
    N34    O37       3.51459      .   S
    Zr36   O38       2.46524      .   S
    N16    O38       3.51459      .   S
    Zr36   O39       2.46524      .   S
    N13    O39       3.51459      .   S
    Zr36   O40       2.51401      .   S
    N10    O40       3.57412      .   S
    Zr36   O41       2.51401      .   S
    N21    O41       3.57412      .   S
    Zr36   O42       2.51401      .   S
    N1     O42       3.57412      .   S
    Zr43   O44       2.51401      .   S
    N13    O44       3.57412  1_565   S
    Zr43   O45       2.46524      .   S
    N24    O45       3.51459      .   S
    Zr43   O46       2.46524      .   S
    N9     O46       3.51459      .   S
    Zr43   O47       2.51401      .   S
    N33    O47       3.57412  1_554   S
    Zr43   O48       2.51401      .   S
    N7     O48       3.57412  1_455   S
    Zr43   O49       2.46524      .   S
    N1     O49       3.51459      .   S
    Zr50   O51       2.46524      .   S
    N31    O51       3.51459      .   S
    Zr50   O52       2.51401      .   S
    N12    O52       3.57412  1_545   S
    Zr50   O53       2.46524      .   S
    N22    O53       3.51459      .   S
    Zr50   O54       2.46524      .   S
    N10    O54       3.51459      .   S
    Zr50   O55       2.51401      .   S
    N18    O55       3.57412  1_554   S
    Zr50   O56       2.51401      .   S
    N16    O56       3.57412  1_655   S
    Zr57   O58       2.46524      .   S
    N28    O58       3.51459      .   S
    Zr57   O59       2.46524      .   S
    N15    O59       3.51459      .   S
    Zr57   O60       2.51401      .   S
    N30    O60       3.57412      .   S
    Zr57   O61       2.51401      .   S
    N22    O61       3.57412      .   S
    Zr57   O62       2.46524      .   S
    N18    O62       3.51459      .   S
    Zr57   O63       2.51401      .   S
    N3     O63       3.57412      .   S
    Zr64   O65       2.51401      .   S
    N28    O65       3.57412  1_565   S
    Zr64   O66       2.46524      .   S
    N25    O66       3.51459      .   S
    Zr64   O67       2.46524      .   S
    N4     O67       3.51459      .   S
    Zr64   O68       2.46524      .   S
    N30    O68       3.51459      .   S
    Zr64   O69       2.51401      .   S
    N6     O69       3.57412  1_655   S
    Zr64   O70       2.51401      .   S
    N19    O70       3.57412  1_556   S
    Zr71   O72       2.46524      .   S
    N6     O72       3.51459      .   S
    Zr71   O73       2.46524      .   S
    N27    O73       3.51459      .   S
    Zr71   O74       2.51401      .   S
    N24    O74       3.57412      .   S
    Zr71   O75       2.46524      .   S
    N33    O75       3.51459      .   S
    Zr71   O76       2.51401      .   S
    N0     O76       3.57412      .   S
    Zr71   O77       2.51401      .   S
    N4     O77       3.57412      .   S
    Zr78   O79       2.51401      .   S
    N27    O79       3.57412  1_545   S
    Zr78   O80       2.51401      .   S
    N34    O80       3.57412  1_556   S
    Zr78   O81       2.46524      .   S
    N21    O81       3.51459      .   S
    Zr78   O82       2.51401      .   S
    N15    O82       3.57412  1_455   S
    Zr78   O83       2.46524      .   S
    N0     O83       3.51459      .   S
    Zr78   O84       2.46524      .   S
    N3     O84       3.51459      .   S
    Zr85   O86       2.46524      .   S
    N12    O86       3.51459      .   S
    Zr85   O87       2.51401      .   S
    N25    O87       3.57412      .   S
    Zr85   O88       2.46524      .   S
    N19    O88       3.51459      .   S
    Zr85   O89       2.51401      .   S
    N31    O89       3.57412      .   S
    Zr85   O90       2.46524      .   S
    N7     O90       3.51459      .   S
    Zr85   O91       2.51401      .   S
    N9     O91       3.57412      .   S
