# CIF file generated by openbabel 2.4.90, see http://openbabel.sf.net
data_I
_chemical_name_common ''
_cell_length_a 21.8827
_cell_length_b 21.8827
_cell_length_c 21.8827
_cell_angle_alpha 90
_cell_angle_beta 90
_cell_angle_gamma 90
_space_group_name_H-M_alt 'P 1'
_space_group_name_Hall 'P 1'
loop_
    _symmetry_equiv_pos_as_xyz
    x,y,z
loop_
    _atom_site_label
    _atom_site_type_symbol
    _atom_site_fract_x
    _atom_site_fract_y
    _atom_site_fract_z
    _atom_site_occupancy
    Zr0     Zr   0.23949   0.69773   0.81804   1.000
    Zr1     Zr   0.20410   0.34985   0.66800   1.000
    Zr2     Zr   0.22500   0.62535   0.76490   1.000
    Zr3     Zr   0.24470   0.39254   0.75233   1.000
    Zr4     Zr   0.18810   0.67056   0.68180   1.000
    Zr5     Zr   0.22150   0.39510   0.69940   1.000
    Zr6     Zr   0.20860   0.62490   0.71050   1.000
    Zr7     Zr   0.24044   0.75956   0.75956   1.000
    Zr8     Zr   0.23820   0.62560   0.89020   1.000
    Zr9     Zr   0.76051   0.30227   0.81804   1.000
    Zr10    Zr   0.76051   0.69773   0.18196   1.000
    Zr11    Zr   0.23949   0.30227   0.18196   1.000
    Zr12    Zr   0.81804   0.23949   0.69773   1.000
    Zr13    Zr   0.81804   0.76051   0.30227   1.000
    Zr14    Zr   0.18196   0.76051   0.69773   1.000
    Zr15    Zr   0.18196   0.23949   0.30227   1.000
    Zr16    Zr   0.69773   0.81804   0.23949   1.000
    Zr17    Zr   0.30227   0.81804   0.76051   1.000
    Zr18    Zr   0.69773   0.18196   0.76051   1.000
    Zr19    Zr   0.30227   0.18196   0.23949   1.000
    Zr20    Zr   0.19773   0.73949   0.31804   1.000
    Zr21    Zr   0.80227   0.26051   0.31804   1.000
    Zr22    Zr   0.19773   0.26051   0.68196   1.000
    Zr23    Zr   0.80227   0.73949   0.68196   1.000
    Zr24    Zr   0.73949   0.31804   0.19773   1.000
    Zr25    Zr   0.26051   0.31804   0.80227   1.000
    Zr26    Zr   0.26051   0.68196   0.19773   1.000
    Zr27    Zr   0.73949   0.68196   0.80227   1.000
    Zr28    Zr   0.31804   0.19773   0.73949   1.000
    Zr29    Zr   0.31804   0.80227   0.26051   1.000
    Zr30    Zr   0.68196   0.19773   0.26051   1.000
    Zr31    Zr   0.68196   0.80227   0.73949   1.000
    Zr32    Zr   0.79590   0.65015   0.66800   1.000
    Zr33    Zr   0.79590   0.34985   0.33200   1.000
    Zr34    Zr   0.20410   0.65015   0.33200   1.000
    Zr35    Zr   0.66800   0.20410   0.34985   1.000
    Zr36    Zr   0.66800   0.79590   0.65015   1.000
    Zr37    Zr   0.33200   0.79590   0.34985   1.000
    Zr38    Zr   0.33200   0.20410   0.65015   1.000
    Zr39    Zr   0.34985   0.66800   0.20410   1.000
    Zr40    Zr   0.65015   0.66800   0.79590   1.000
    Zr41    Zr   0.34985   0.33200   0.79590   1.000
    Zr42    Zr   0.65015   0.33200   0.20410   1.000
    Zr43    Zr   0.84985   0.70410   0.16800   1.000
    Zr44    Zr   0.15015   0.29590   0.16800   1.000
    Zr45    Zr   0.84985   0.29590   0.83200   1.000
    Zr46    Zr   0.15015   0.70410   0.83200   1.000
    Zr47    Zr   0.70410   0.16800   0.84985   1.000
    Zr48    Zr   0.29590   0.16800   0.15015   1.000
    Zr49    Zr   0.29590   0.83200   0.84985   1.000
    Zr50    Zr   0.70410   0.83200   0.15015   1.000
    Zr51    Zr   0.16800   0.84985   0.70410   1.000
    Zr52    Zr   0.16800   0.15015   0.29590   1.000
    Zr53    Zr   0.83200   0.84985   0.29590   1.000
    Zr54    Zr   0.83200   0.15015   0.70410   1.000
    Zr55    Zr   0.77500   0.37465   0.76490   1.000
    Zr56    Zr   0.77500   0.62535   0.23510   1.000
    Zr57    Zr   0.22500   0.37465   0.23510   1.000
    Zr58    Zr   0.76490   0.22500   0.62535   1.000
    Zr59    Zr   0.76490   0.77500   0.37465   1.000
    Zr60    Zr   0.23510   0.77500   0.62535   1.000
    Zr61    Zr   0.23510   0.22500   0.37465   1.000
    Zr62    Zr   0.62535   0.76490   0.22500   1.000
    Zr63    Zr   0.37465   0.76490   0.77500   1.000
    Zr64    Zr   0.62535   0.23510   0.77500   1.000
    Zr65    Zr   0.37465   0.23510   0.22500   1.000
    Zr66    Zr   0.12535   0.72500   0.26490   1.000
    Zr67    Zr   0.87465   0.27500   0.26490   1.000
    Zr68    Zr   0.12535   0.27500   0.73510   1.000
    Zr69    Zr   0.87465   0.72500   0.73510   1.000
    Zr70    Zr   0.72500   0.26490   0.12535   1.000
    Zr71    Zr   0.27500   0.26490   0.87465   1.000
    Zr72    Zr   0.27500   0.73510   0.12535   1.000
    Zr73    Zr   0.72500   0.73510   0.87465   1.000
    Zr74    Zr   0.26490   0.12535   0.72500   1.000
    Zr75    Zr   0.26490   0.87465   0.27500   1.000
    Zr76    Zr   0.73510   0.12535   0.27500   1.000
    Zr77    Zr   0.73510   0.87465   0.72500   1.000
    Zr78    Zr   0.75530   0.60746   0.75233   1.000
    Zr79    Zr   0.75530   0.39254   0.24767   1.000
    Zr80    Zr   0.24470   0.60746   0.24767   1.000
    Zr81    Zr   0.75233   0.24470   0.39254   1.000
    Zr82    Zr   0.75233   0.75530   0.60746   1.000
    Zr83    Zr   0.24767   0.75530   0.39254   1.000
    Zr84    Zr   0.24767   0.24470   0.60746   1.000
    Zr85    Zr   0.39254   0.75233   0.24470   1.000
    Zr86    Zr   0.60746   0.75233   0.75530   1.000
    Zr87    Zr   0.39254   0.24767   0.75530   1.000
    Zr88    Zr   0.60746   0.24767   0.24470   1.000
    Zr89    Zr   0.89254   0.74470   0.25233   1.000
    Zr90    Zr   0.10746   0.25530   0.25233   1.000
    Zr91    Zr   0.89254   0.25530   0.74767   1.000
    Zr92    Zr   0.10746   0.74470   0.74767   1.000
    Zr93    Zr   0.74470   0.25233   0.89254   1.000
    Zr94    Zr   0.25530   0.25233   0.10746   1.000
    Zr95    Zr   0.25530   0.74767   0.89254   1.000
    Zr96    Zr   0.74470   0.74767   0.10746   1.000
    Zr97    Zr   0.25233   0.89254   0.74470   1.000
    Zr98    Zr   0.25233   0.10746   0.25530   1.000
    Zr99    Zr   0.74767   0.89254   0.25530   1.000
    Zr100   Zr   0.74767   0.10746   0.74470   1.000
    Zr101   Zr   0.81190   0.32944   0.68180   1.000
    Zr102   Zr   0.81190   0.67056   0.31820   1.000
    Zr103   Zr   0.18810   0.32944   0.31820   1.000
    Zr104   Zr   0.68180   0.18810   0.67056   1.000
    Zr105   Zr   0.68180   0.81190   0.32944   1.000
    Zr106   Zr   0.31820   0.81190   0.67056   1.000
    Zr107   Zr   0.31820   0.18810   0.32944   1.000
    Zr108   Zr   0.67056   0.68180   0.18810   1.000
    Zr109   Zr   0.32944   0.68180   0.81190   1.000
    Zr110   Zr   0.67056   0.31820   0.81190   1.000
    Zr111   Zr   0.32944   0.31820   0.18810   1.000
    Zr112   Zr   0.17056   0.68810   0.18180   1.000
    Zr113   Zr   0.82944   0.31190   0.18180   1.000
    Zr114   Zr   0.17056   0.31190   0.81820   1.000
    Zr115   Zr   0.82944   0.68810   0.81820   1.000
    Zr116   Zr   0.68810   0.18180   0.17056   1.000
    Zr117   Zr   0.31190   0.18180   0.82944   1.000
    Zr118   Zr   0.31190   0.81820   0.17056   1.000
    Zr119   Zr   0.68810   0.81820   0.82944   1.000
    Zr120   Zr   0.18180   0.17056   0.68810   1.000
    Zr121   Zr   0.18180   0.82944   0.31190   1.000
    Zr122   Zr   0.81820   0.17056   0.31190   1.000
    Zr123   Zr   0.81820   0.82944   0.68810   1.000
    Zr124   Zr   0.77850   0.60490   0.69940   1.000
    Zr125   Zr   0.77850   0.39510   0.30060   1.000
    Zr126   Zr   0.22150   0.60490   0.30060   1.000
    Zr127   Zr   0.69940   0.22150   0.39510   1.000
    Zr128   Zr   0.69940   0.77850   0.60490   1.000
    Zr129   Zr   0.30060   0.77850   0.39510   1.000
    Zr130   Zr   0.30060   0.22150   0.60490   1.000
    Zr131   Zr   0.39510   0.69940   0.22150   1.000
    Zr132   Zr   0.60490   0.69940   0.77850   1.000
    Zr133   Zr   0.39510   0.30060   0.77850   1.000
    Zr134   Zr   0.60490   0.30060   0.22150   1.000
    Zr135   Zr   0.89510   0.72150   0.19940   1.000
    Zr136   Zr   0.10490   0.27850   0.19940   1.000
    Zr137   Zr   0.89510   0.27850   0.80060   1.000
    Zr138   Zr   0.10490   0.72150   0.80060   1.000
    Zr139   Zr   0.72150   0.19940   0.89510   1.000
    Zr140   Zr   0.27850   0.19940   0.10490   1.000
    Zr141   Zr   0.27850   0.80060   0.89510   1.000
    Zr142   Zr   0.72150   0.80060   0.10490   1.000
    Zr143   Zr   0.19940   0.89510   0.72150   1.000
    Zr144   Zr   0.19940   0.10490   0.27850   1.000
    Zr145   Zr   0.80060   0.89510   0.27850   1.000
    Zr146   Zr   0.80060   0.10490   0.72150   1.000
    Zr147   Zr   0.79140   0.37510   0.71050   1.000
    Zr148   Zr   0.79140   0.62490   0.28950   1.000
    Zr149   Zr   0.20860   0.37510   0.28950   1.000
    Zr150   Zr   0.71050   0.20860   0.62490   1.000
    Zr151   Zr   0.71050   0.79140   0.37510   1.000
    Zr152   Zr   0.28950   0.79140   0.62490   1.000
    Zr153   Zr   0.28950   0.20860   0.37510   1.000
    Zr154   Zr   0.62490   0.71050   0.20860   1.000
    Zr155   Zr   0.37510   0.71050   0.79140   1.000
    Zr156   Zr   0.62490   0.28950   0.79140   1.000
    Zr157   Zr   0.37510   0.28950   0.20860   1.000
    Zr158   Zr   0.12490   0.70860   0.21050   1.000
    Zr159   Zr   0.87510   0.29140   0.21050   1.000
    Zr160   Zr   0.12490   0.29140   0.78950   1.000
    Zr161   Zr   0.87510   0.70860   0.78950   1.000
    Zr162   Zr   0.70860   0.21050   0.12490   1.000
    Zr163   Zr   0.29140   0.21050   0.87510   1.000
    Zr164   Zr   0.29140   0.78950   0.12490   1.000
    Zr165   Zr   0.70860   0.78950   0.87510   1.000
    Zr166   Zr   0.21050   0.12490   0.70860   1.000
    Zr167   Zr   0.21050   0.87510   0.29140   1.000
    Zr168   Zr   0.78950   0.12490   0.29140   1.000
    Zr169   Zr   0.78950   0.87510   0.70860   1.000
    Zr170   Zr   0.75956   0.24044   0.75956   1.000
    Zr171   Zr   0.75956   0.75956   0.24044   1.000
    Zr172   Zr   0.24044   0.24044   0.24044   1.000
    Zr173   Zr   0.25956   0.74044   0.25956   1.000
    Zr174   Zr   0.74044   0.25956   0.25956   1.000
    Zr175   Zr   0.25956   0.25956   0.74044   1.000
    Zr176   Zr   0.74044   0.74044   0.74044   1.000
    Zr177   Zr   0.76180   0.37440   0.89020   1.000
    Zr178   Zr   0.76180   0.62560   0.10980   1.000
    Zr179   Zr   0.23820   0.37440   0.10980   1.000
    Zr180   Zr   0.89020   0.23820   0.62560   1.000
    Zr181   Zr   0.89020   0.76180   0.37440   1.000
    Zr182   Zr   0.10980   0.76180   0.62560   1.000
    Zr183   Zr   0.10980   0.23820   0.37440   1.000
    Zr184   Zr   0.62560   0.89020   0.23820   1.000
    Zr185   Zr   0.37440   0.89020   0.76180   1.000
    Zr186   Zr   0.62560   0.10980   0.76180   1.000
    Zr187   Zr   0.37440   0.10980   0.23820   1.000
    Zr188   Zr   0.12560   0.73820   0.39020   1.000
    Zr189   Zr   0.87440   0.26180   0.39020   1.000
    Zr190   Zr   0.12560   0.26180   0.60980   1.000
    Zr191   Zr   0.87440   0.73820   0.60980   1.000
    Zr192   Zr   0.73820   0.39020   0.12560   1.000
    Zr193   Zr   0.26180   0.39020   0.87440   1.000
    Zr194   Zr   0.26180   0.60980   0.12560   1.000
    Zr195   Zr   0.73820   0.60980   0.87440   1.000
    Zr196   Zr   0.39020   0.12560   0.73820   1.000
    Zr197   Zr   0.39020   0.87440   0.26180   1.000
    Zr198   Zr   0.60980   0.12560   0.26180   1.000
    Zr199   Zr   0.60980   0.87440   0.73820   1.000
    O200    O    0.26690   0.22587   0.10618   1.000
    O201    O    0.28720   0.18370   0.12753   1.000
    O202    O    0.73310   0.77413   0.10618   1.000
    O203    O    0.71280   0.81630   0.12753   1.000
    O204    O    0.24739   0.27730   0.14471   1.000
    O205    O    0.75260   0.72270   0.14471   1.000
    O206    O    0.23884   0.33833   0.14588   1.000
    O207    O    0.76115   0.66166   0.14588   1.000
    O208    O    0.28320   0.76230   0.12513   1.000
    O209    O    0.30165   0.80385   0.14773   1.000
    O210    O    0.71680   0.23770   0.12513   1.000
    O211    O    0.69835   0.19615   0.14773   1.000
    O212    O    0.26775   0.70853   0.16154   1.000
    O213    O    0.73224   0.29147   0.16154   1.000
    O214    O    0.26116   0.64588   0.16166   1.000
    O215    O    0.73884   0.35412   0.16166   1.000
    O216    O    0.70092   0.82502   0.19482   1.000
    O217    O    0.29908   0.17498   0.19482   1.000
    O218    O    0.19482   0.29908   0.17498   1.000
    O219    O    0.12753   0.28720   0.18370   1.000
    O220    O    0.80518   0.70091   0.17498   1.000
    O221    O    0.87247   0.71280   0.18370   1.000
    O222    O    0.68503   0.18976   0.21554   1.000
    O223    O    0.31497   0.81023   0.21554   1.000
    O224    O    0.78446   0.31497   0.18976   1.000
    O225    O    0.85227   0.30165   0.19615   1.000
    O226    O    0.21554   0.68503   0.18976   1.000
    O227    O    0.14773   0.69835   0.19615   1.000
    O228    O    0.28446   0.31024   0.18503   1.000
    O229    O    0.23224   0.33846   0.20853   1.000
    O230    O    0.23996   0.27135   0.21120   1.000
    O231    O    0.71554   0.68976   0.18503   1.000
    O232    O    0.76775   0.66154   0.20853   1.000
    O233    O    0.35227   0.30385   0.19835   1.000
    O234    O    0.64773   0.69615   0.19835   1.000
    O235    O    0.69482   0.32502   0.20091   1.000
    O236    O    0.74740   0.35529   0.22270   1.000
    O237    O    0.73996   0.28880   0.22864   1.000
    O238    O    0.30518   0.67498   0.20091   1.000
    O239    O    0.25260   0.64471   0.22270   1.000
    O240    O    0.26004   0.71120   0.22864   1.000
    O241    O    0.10618   0.26690   0.22587   1.000
    O242    O    0.89382   0.73310   0.22587   1.000
    O243    O    0.62752   0.31630   0.21280   1.000
    O244    O    0.37247   0.68370   0.21280   1.000
    O245    O    0.37488   0.26230   0.21680   1.000
    O246    O    0.62513   0.73770   0.21680   1.000
    O247    O    0.87487   0.28320   0.23770   1.000
    O248    O    0.12512   0.71680   0.23770   1.000
    O249    O    0.39382   0.72586   0.23310   1.000
    O250    O    0.60618   0.27413   0.23310   1.000
    O251    O    0.33846   0.20853   0.23224   1.000
    O252    O    0.66154   0.79147   0.23224   1.000
    O253    O    0.78320   0.62512   0.26230   1.000
    O254    O    0.21680   0.37488   0.26230   1.000
    O255    O    0.33833   0.14588   0.23884   1.000
    O256    O    0.66166   0.85412   0.23884   1.000
    O257    O    0.72864   0.78880   0.23996   1.000
    O258    O    0.72270   0.85529   0.24740   1.000
    O259    O    0.68976   0.81497   0.28446   1.000
    O260    O    0.27730   0.14471   0.24740   1.000
    O261    O    0.31024   0.18503   0.28446   1.000
    O262    O    0.21120   0.23996   0.27135   1.000
    O263    O    0.78880   0.76004   0.27135   1.000
    O264    O    0.64471   0.22270   0.25260   1.000
    O265    O    0.35529   0.77730   0.25260   1.000
    O266    O    0.76690   0.39382   0.27413   1.000
    O267    O    0.23310   0.60618   0.27413   1.000
    O268    O    0.85529   0.75260   0.27730   1.000
    O269    O    0.14471   0.24739   0.27730   1.000
    O270    O    0.77413   0.89382   0.26690   1.000
    O271    O    0.22586   0.10618   0.26690   1.000
    O272    O    0.71120   0.22864   0.26004   1.000
    O273    O    0.22864   0.73996   0.28880   1.000
    O274    O    0.64588   0.16166   0.26116   1.000
    O275    O    0.70853   0.16154   0.26776   1.000
    O276    O    0.67498   0.20091   0.30518   1.000
    O277    O    0.35412   0.83833   0.26116   1.000
    O278    O    0.29147   0.83846   0.26776   1.000
    O279    O    0.32502   0.79908   0.30518   1.000
    O280    O    0.16154   0.73224   0.29147   1.000
    O281    O    0.83846   0.26776   0.29147   1.000
    O282    O    0.23770   0.87487   0.28320   1.000
    O283    O    0.76230   0.12513   0.28320   1.000
    O284    O    0.18370   0.12752   0.28720   1.000
    O285    O    0.81630   0.87247   0.28720   1.000
    O286    O    0.80165   0.64773   0.30385   1.000
    O287    O    0.19835   0.35227   0.30385   1.000
    O288    O    0.19615   0.85227   0.30165   1.000
    O289    O    0.80385   0.14773   0.30165   1.000
    O290    O    0.82502   0.80518   0.29908   1.000
    O291    O    0.17498   0.19482   0.29908   1.000
    O292    O    0.78720   0.37247   0.31630   1.000
    O293    O    0.21280   0.62752   0.31630   1.000
    O294    O    0.18503   0.28446   0.31024   1.000
    O295    O    0.14588   0.23884   0.33833   1.000
    O296    O    0.20853   0.23224   0.33846   1.000
    O297    O    0.81497   0.71553   0.31024   1.000
    O298    O    0.85412   0.76115   0.33833   1.000
    O299    O    0.79147   0.76775   0.33846   1.000
    O300    O    0.18976   0.78446   0.31497   1.000
    O301    O    0.81023   0.21553   0.31497   1.000
    O302    O    0.20091   0.69482   0.32502   1.000
    O303    O    0.16166   0.73884   0.35412   1.000
    O304    O    0.22270   0.74740   0.35529   1.000
    O305    O    0.79908   0.30518   0.32502   1.000
    O306    O    0.83833   0.26116   0.35412   1.000
    O307    O    0.77730   0.25261   0.35529   1.000
    O308    O    0.69615   0.80165   0.35227   1.000
    O309    O    0.30385   0.19835   0.35227   1.000
    O310    O    0.68370   0.21280   0.37247   1.000
    O311    O    0.31630   0.78720   0.37247   1.000
    O312    O    0.73770   0.78320   0.37488   1.000
    O313    O    0.26230   0.21680   0.37488   1.000
    O314    O    0.27413   0.76690   0.39382   1.000
    O315    O    0.72586   0.23310   0.39382   1.000
    O316    O    0.72586   0.76690   0.60618   1.000
    O317    O    0.68370   0.78720   0.62752   1.000
    O318    O    0.27413   0.23310   0.60618   1.000
    O319    O    0.31630   0.21280   0.62752   1.000
    O320    O    0.77730   0.74740   0.64471   1.000
    O321    O    0.22270   0.25260   0.64471   1.000
    O322    O    0.16166   0.26116   0.64588   1.000
    O323    O    0.83833   0.73884   0.64588   1.000
    O324    O    0.73770   0.21680   0.62512   1.000
    O325    O    0.69615   0.19835   0.64773   1.000
    O326    O    0.26230   0.78320   0.62512   1.000
    O327    O    0.30385   0.80165   0.64773   1.000
    O328    O    0.79147   0.23224   0.66154   1.000
    O329    O    0.20853   0.76775   0.66154   1.000
    O330    O    0.85412   0.23884   0.66166   1.000
    O331    O    0.14588   0.76115   0.66166   1.000
    O332    O    0.67498   0.79908   0.69482   1.000
    O333    O    0.32502   0.20091   0.69482   1.000
    O334    O    0.79908   0.69482   0.67498   1.000
    O335    O    0.78720   0.62753   0.68370   1.000
    O336    O    0.20091   0.30518   0.67498   1.000
    O337    O    0.21280   0.37247   0.68370   1.000
    O338    O    0.68976   0.18503   0.71553   1.000
    O339    O    0.31023   0.81497   0.71553   1.000
    O340    O    0.81497   0.28446   0.68976   1.000
    O341    O    0.80165   0.35227   0.69615   1.000
    O342    O    0.18503   0.71554   0.68976   1.000
    O343    O    0.19835   0.64773   0.69615   1.000
    O344    O    0.18976   0.21554   0.68503   1.000
    O345    O    0.16154   0.26775   0.70853   1.000
    O346    O    0.22864   0.26004   0.71120   1.000
    O347    O    0.81023   0.78446   0.68503   1.000
    O348    O    0.83846   0.73224   0.70853   1.000
    O349    O    0.19615   0.14773   0.69835   1.000
    O350    O    0.80385   0.85227   0.69835   1.000
    O351    O    0.17498   0.80518   0.70091   1.000
    O352    O    0.14471   0.75260   0.72270   1.000
    O353    O    0.82502   0.19482   0.70091   1.000
    O354    O    0.85529   0.24739   0.72270   1.000
    O355    O    0.76690   0.60618   0.72586   1.000
    O356    O    0.23310   0.39382   0.72586   1.000
    O357    O    0.18370   0.87247   0.71280   1.000
    O358    O    0.81630   0.12752   0.71280   1.000
    O359    O    0.76230   0.87487   0.71680   1.000
    O360    O    0.23770   0.12512   0.71680   1.000
    O361    O    0.78320   0.37487   0.73770   1.000
    O362    O    0.21680   0.62513   0.73770   1.000
    O363    O    0.77413   0.10618   0.73310   1.000
    O364    O    0.22586   0.89382   0.73310   1.000
    O365    O    0.70853   0.83846   0.73224   1.000
    O366    O    0.29147   0.16154   0.73224   1.000
    O367    O    0.12512   0.28320   0.76230   1.000
    O368    O    0.87487   0.71680   0.76230   1.000
    O369    O    0.35412   0.16166   0.73884   1.000
    O370    O    0.64588   0.83833   0.73884   1.000
    O371    O    0.71120   0.77135   0.73996   1.000
    O372    O    0.64471   0.77730   0.74740   1.000
    O373    O    0.68503   0.81023   0.78446   1.000
    O374    O    0.35529   0.22270   0.74740   1.000
    O375    O    0.31497   0.18976   0.78446   1.000
    O376    O    0.73996   0.71120   0.77135   1.000
    O377    O    0.26004   0.28880   0.77135   1.000
    O378    O    0.27730   0.85529   0.75260   1.000
    O379    O    0.72270   0.14471   0.75260   1.000
    O380    O    0.10618   0.73310   0.77413   1.000
    O381    O    0.89382   0.26690   0.77413   1.000
    O382    O    0.25260   0.35529   0.77730   1.000
    O383    O    0.74740   0.64471   0.77730   1.000
    O384    O    0.60618   0.72586   0.76690   1.000
    O385    O    0.39382   0.27413   0.76690   1.000
    O386    O    0.72864   0.21120   0.76004   1.000
    O387    O    0.76004   0.27135   0.78880   1.000
    O388    O    0.27135   0.78880   0.76004   1.000
    O389    O    0.23996   0.72864   0.78880   1.000
    O390    O    0.33833   0.85412   0.76115   1.000
    O391    O    0.33846   0.79147   0.76775   1.000
    O392    O    0.29908   0.82502   0.80518   1.000
    O393    O    0.66166   0.14588   0.76115   1.000
    O394    O    0.66154   0.20853   0.76775   1.000
    O395    O    0.70092   0.17498   0.80518   1.000
    O396    O    0.23225   0.66154   0.79147   1.000
    O397    O    0.76775   0.33846   0.79147   1.000
    O398    O    0.37488   0.73770   0.78320   1.000
    O399    O    0.62513   0.26230   0.78320   1.000
    O400    O    0.37247   0.31630   0.78720   1.000
    O401    O    0.62753   0.68370   0.78720   1.000
    O402    O    0.14773   0.30165   0.80385   1.000
    O403    O    0.85227   0.69835   0.80385   1.000
    O404    O    0.64773   0.30385   0.80165   1.000
    O405    O    0.35227   0.69615   0.80165   1.000
    O406    O    0.69482   0.67498   0.79908   1.000
    O407    O    0.30518   0.32502   0.79908   1.000
    O408    O    0.12752   0.71280   0.81630   1.000
    O409    O    0.87247   0.28720   0.81630   1.000
    O410    O    0.21553   0.31497   0.81023   1.000
    O411    O    0.26116   0.35412   0.83833   1.000
    O412    O    0.26775   0.29147   0.83846   1.000
    O413    O    0.78446   0.68503   0.81023   1.000
    O414    O    0.73884   0.64588   0.83833   1.000
    O415    O    0.73225   0.70853   0.83846   1.000
    O416    O    0.71554   0.31024   0.81497   1.000
    O417    O    0.28446   0.68976   0.81497   1.000
    O418    O    0.80518   0.29908   0.82502   1.000
    O419    O    0.76115   0.33833   0.85412   1.000
    O420    O    0.75260   0.27730   0.85529   1.000
    O421    O    0.19482   0.70092   0.82502   1.000
    O422    O    0.23884   0.66166   0.85412   1.000
    O423    O    0.24739   0.72270   0.85529   1.000
    O424    O    0.69835   0.80385   0.85227   1.000
    O425    O    0.30165   0.19615   0.85227   1.000
    O426    O    0.28720   0.81630   0.87247   1.000
    O427    O    0.71280   0.18370   0.87247   1.000
    O428    O    0.28320   0.23770   0.87487   1.000
    O429    O    0.71680   0.76230   0.87487   1.000
    O430    O    0.73310   0.22587   0.89382   1.000
    O431    O    0.26690   0.77413   0.89382   1.000
    O432    O    0.21120   0.76004   0.72864   1.000
    O433    O    0.78880   0.23996   0.72864   1.000
    O434    O    0.76004   0.72864   0.21120   1.000
    O435    O    0.27135   0.21120   0.23996   1.000
    O436    O    0.28880   0.77135   0.26004   1.000
    O437    O    0.77135   0.26004   0.28880   1.000
    O438    O    0.28880   0.22864   0.73996   1.000
    O439    O    0.77135   0.73996   0.71120   1.000
    N440    N    0.79028   0.51333   0.35817   1.000
    O441    O    0.79069   0.55462   0.33239   1.000
    O442    O    0.78589   0.46974   0.33666   1.000
    N443    N    0.79028   0.48667   0.64183   1.000
    O444    O    0.78589   0.53026   0.66334   1.000
    O445    O    0.79069   0.44538   0.66761   1.000
    O446    O    0.79568   0.49170   0.54718   1.000
    N447    N    0.51333   0.64183   0.20972   1.000
    O448    O    0.46974   0.66334   0.21411   1.000
    O449    O    0.55462   0.66761   0.20931   1.000
    N450    N    0.48667   0.35817   0.20972   1.000
    O451    O    0.53026   0.33666   0.21411   1.000
    O452    O    0.44538   0.33239   0.20931   1.000
    O453    O    0.49170   0.45282   0.20432   1.000
    N454    N    0.98667   0.29028   0.14183   1.000
    O455    O    0.03026   0.28589   0.16334   1.000
    O456    O    0.94538   0.29069   0.16761   1.000
    N457    N    0.01333   0.29028   0.85817   1.000
    O458    O    0.96974   0.28589   0.83666   1.000
    O459    O    0.05462   0.29069   0.83239   1.000
    O460    O    0.00830   0.29568   0.95282   1.000
    N461    N    0.51333   0.35817   0.79028   1.000
    O462    O    0.46974   0.33666   0.78589   1.000
    O463    O    0.55462   0.33239   0.79069   1.000
    N464    N    0.48667   0.64183   0.79028   1.000
    O465    O    0.53026   0.66334   0.78589   1.000
    O466    O    0.44538   0.66761   0.79069   1.000
    O467    O    0.50830   0.45282   0.79568   1.000
    N468    N    0.14183   0.01333   0.70972   1.000
    O469    O    0.16334   0.96974   0.71411   1.000
    O470    O    0.16761   0.05462   0.70931   1.000
    N471    N    0.85817   0.98667   0.70972   1.000
    O472    O    0.83239   0.94538   0.70931   1.000
    O473    O    0.83666   0.03026   0.71411   1.000
    O474    O    0.95282   0.99170   0.70432   1.000
    N475    N    0.01333   0.70972   0.14183   1.000
    O476    O    0.05462   0.70931   0.16761   1.000
    O477    O    0.96974   0.71411   0.16334   1.000
    N478    N    0.98667   0.70972   0.85817   1.000
    O479    O    0.94538   0.70931   0.83239   1.000
    O480    O    0.03026   0.71411   0.83666   1.000
    O481    O    0.00830   0.70432   0.04718   1.000
    N482    N    0.29028   0.85817   0.01333   1.000
    O483    O    0.29069   0.83239   0.05462   1.000
    O484    O    0.28589   0.83666   0.96974   1.000
    N485    N    0.29028   0.14183   0.98667   1.000
    O486    O    0.29069   0.16761   0.94538   1.000
    O487    O    0.28589   0.16334   0.03026   1.000
    O488    O    0.29568   0.95282   0.00830   1.000
    N489    N    0.64183   0.79028   0.48667   1.000
    O490    O    0.66761   0.79069   0.44538   1.000
    O491    O    0.66334   0.78589   0.53026   1.000
    N492    N    0.35817   0.79028   0.51333   1.000
    O493    O    0.33666   0.78589   0.46974   1.000
    O494    O    0.33239   0.79069   0.55462   1.000
    O495    O    0.54718   0.79568   0.49170   1.000
    N496    N    0.64183   0.20972   0.51333   1.000
    O497    O    0.66761   0.20931   0.55462   1.000
    O498    O    0.66334   0.21411   0.46974   1.000
    N499    N    0.35817   0.20972   0.48667   1.000
    O500    O    0.33666   0.21411   0.53026   1.000
    O501    O    0.33239   0.20931   0.44538   1.000
    O502    O    0.45282   0.20432   0.49170   1.000
    N503    N    0.85817   0.01333   0.29028   1.000
    O504    O    0.83666   0.96974   0.28589   1.000
    O505    O    0.83239   0.05462   0.29069   1.000
    N506    N    0.14183   0.98667   0.29028   1.000
    O507    O    0.16334   0.03026   0.28589   1.000
    O508    O    0.16761   0.94538   0.29069   1.000
    O509    O    0.04718   0.99170   0.29568   1.000
    N510    N    0.20972   0.48667   0.35817   1.000
    O511    O    0.20931   0.44538   0.33239   1.000
    O512    O    0.21411   0.53026   0.33666   1.000
    N513    N    0.20972   0.51333   0.64183   1.000
    O514    O    0.20931   0.55462   0.66761   1.000
    O515    O    0.21411   0.46974   0.66334   1.000
    O516    O    0.20432   0.50830   0.54718   1.000
    N517    N    0.70972   0.14183   0.01333   1.000
    O518    O    0.70931   0.16761   0.05462   1.000
    O519    O    0.71411   0.16334   0.96974   1.000
    N520    N    0.70972   0.85817   0.98667   1.000
    O521    O    0.70931   0.83239   0.94538   1.000
    O522    O    0.71411   0.83666   0.03026   1.000
    O523    O    0.70432   0.04718   0.00830   1.000
loop_
    _geom_bond_atom_site_label_1
    _geom_bond_atom_site_label_2
    _geom_bond_distance
    _geom_bond_site_symmetry_2
    _ccdc_geom_bond_type
    Zr140  O200      0.63293      .   S
    Zr94   O200      0.63293      .   S
    Zr140  O201      0.63198      .   S
    Zr48   O201      0.63198      .   S
    Zr142  O202      0.63293      .   S
    Zr96   O202      0.63293      .   S
    Zr142  O203      0.63198      .   S
    Zr50   O203      0.63198      .   S
    Zr94   O204      0.99646      .   S
    Zr11   O204      0.99646      .   S
    Zr96   O205      0.99646      .   S
    Zr10   O205      0.99646      .   S
    Zr179  O206      1.11642      .   S
    Zr11   O206      1.11642      .   S
    Zr178  O207      1.11642      .   S
    Zr10   O207      1.11642      .   S
    Zr164  O208      0.62169      .   S
    Zr72   O208      0.62169      .   S
    Zr164  O209      0.63127      .   S
    Zr118  O209      0.63127      .   S
    Zr162  O210      0.62169      .   S
    Zr70   O210      0.62169      .   S
    Zr162  O211      0.63127      .   S
    Zr116  O211      0.63127      .   S
    Zr72   O212      0.99516      .   S
    Zr26   O212      0.99516      .   S
    Zr70   O213      0.99516      .   S
    Zr24   O213      0.99516      .   S
    Zr194  O214      1.11642      .   S
    Zr26   O214      1.11642      .   S
    Zr192  O215      1.11642      .   S
    Zr24   O215      1.11642      .   S
    Zr50   O216      0.99181      .   S
    Zr16   O216      0.99181      .   S
    Zr48   O217      0.99181      .   S
    Zr19   O217      0.99181      .   S
    Zr44   O218      0.99181      .   S
    Zr11   O218      0.99181      .   S
    Zr44   O219      0.63198      .   S
    Zr136  O219      0.63198      .   S
    Zr43   O220      0.99181      .   S
    Zr10   O220      0.99181      .   S
    Zr43   O221      0.63198      .   S
    Zr135  O221      0.63198      .   S
    Zr116  O222      1.00174      .   S
    Zr30   O222      1.00174      .   S
    Zr118  O223      1.00174      .   S
    Zr29   O223      1.00174      .   S
    Zr113  O224      1.00174      .   S
    Zr24   O224      1.00174      .   S
    Zr113  O225      0.63127      .   S
    Zr159  O225      0.63127      .   S
    Zr112  O226      1.00174      .   S
    Zr26   O226      1.00174      .   S
    Zr112  O227      0.63127      .   S
    Zr158  O227      0.63127      .   S
    Zr11   O228      1.00174      .   S
    Zr111  O228      1.00174      .   S
    Zr11   O229      0.99516      .   S
    Zr57   O229      0.99516      .   S
    Zr11   O230      0.93122      .   S
    Zr172  O230      0.93122      .   S
    Zr10   O231      1.00174      .   S
    Zr108  O231      1.00174      .   S
    Zr10   O232      0.99516      .   S
    Zr56   O232      0.99516      .   S
    Zr111  O233      0.63127      .   S
    Zr157  O233      0.63127      .   S
    Zr108  O234      0.63127      .   S
    Zr154  O234      0.63127      .   S
    Zr24   O235      0.99181      .   S
    Zr42   O235      0.99181      .   S
    Zr24   O236      0.99646      .   S
    Zr79   O236      0.99646      .   S
    Zr24   O237      0.93122      .   S
    Zr174  O237      0.93122      .   S
    Zr26   O238      0.99181      .   S
    Zr39   O238      0.99181      .   S
    Zr26   O239      0.99646      .   S
    Zr80   O239      0.99646      .   S
    Zr26   O240      0.93122      .   S
    Zr173  O240      0.93122      .   S
    Zr136  O241      0.63293      .   S
    Zr90   O241      0.63293      .   S
    Zr135  O242      0.63293      .   S
    Zr89   O242      0.63293      .   S
    Zr42   O243      0.63198      .   S
    Zr134  O243      0.63198      .   S
    Zr39   O244      0.63198      .   S
    Zr131  O244      0.63198      .   S
    Zr157  O245      0.62169      .   S
    Zr65   O245      0.62169      .   S
    Zr154  O246      0.62169      .   S
    Zr62   O246      0.62169      .   S
    Zr159  O247      0.62169      .   S
    Zr67   O247      0.62169      .   S
    Zr158  O248      0.62169      .   S
    Zr66   O248      0.62169      .   S
    Zr131  O249      0.63293      .   S
    Zr85   O249      0.63293      .   S
    Zr134  O250      0.63293      .   S
    Zr88   O250      0.63293      .   S
    Zr65   O251      0.99516      .   S
    Zr19   O251      0.99516      .   S
    Zr62   O252      0.99516      .   S
    Zr16   O252      0.99516      .   S
    Zr56   O253      0.62169      .   S
    Zr148  O253      0.62169      .   S
    Zr57   O254      0.62169      .   S
    Zr149  O254      0.62169      .   S
    Zr187  O255      1.11642      .   S
    Zr19   O255      1.11642      .   S
    Zr184  O256      1.11642      .   S
    Zr16   O256      1.11642      .   S
    Zr16   O257      0.93122      .   S
    Zr171  O257      0.93122      .   S
    Zr16   O258      0.99646      .   S
    Zr99   O258      0.99646      .   S
    Zr16   O259      1.00174      .   S
    Zr105  O259      1.00174      .   S
    Zr19   O260      0.99646      .   S
    Zr98   O260      0.99646      .   S
    Zr19   O261      1.00174      .   S
    Zr107  O261      1.00174      .   S
    Zr172  O262      0.93122      .   S
    Zr15   O262      0.93122      .   S
    Zr171  O263      0.93122      .   S
    Zr13   O263      0.93122      .   S
    Zr88   O264      0.99646      .   S
    Zr30   O264      0.99646      .   S
    Zr85   O265      0.99646      .   S
    Zr29   O265      0.99646      .   S
    Zr79   O266      0.63293      .   S
    Zr125  O266      0.63293      .   S
    Zr80   O267      0.63293      .   S
    Zr126  O267      0.63293      .   S
    Zr89   O268      0.99646      .   S
    Zr13   O268      0.99646      .   S
    Zr90   O269      0.99646      .   S
    Zr15   O269      0.99646      .   S
    Zr99   O270      0.63293      .   S
    Zr145  O270      0.63293      .   S
    Zr98   O271      0.63293      .   S
    Zr144  O271      0.63293      .   S
    Zr174  O272      0.93122      .   S
    Zr30   O272      0.93122      .   S
    Zr173  O273      0.93122      .   S
    Zr20   O273      0.93122      .   S
    Zr30   O274      1.11642      .   S
    Zr198  O274      1.11642      .   S
    Zr30   O275      0.99516      .   S
    Zr76   O275      0.99516      .   S
    Zr30   O276      0.99181      .   S
    Zr35   O276      0.99181      .   S
    Zr29   O277      1.11642      .   S
    Zr197  O277      1.11642      .   S
    Zr29   O278      0.99516      .   S
    Zr75   O278      0.99516      .   S
    Zr29   O279      0.99181      .   S
    Zr37   O279      0.99181      .   S
    Zr66   O280      0.99516      .   S
    Zr20   O280      0.99516      .   S
    Zr67   O281      0.99516      .   S
    Zr21   O281      0.99516      .   S
    Zr75   O282      0.62169      .   S
    Zr167  O282      0.62169      .   S
    Zr76   O283      0.62169      .   S
    Zr168  O283      0.62169      .   S
    Zr144  O284      0.63198      .   S
    Zr52   O284      0.63198      .   S
    Zr145  O285      0.63198      .   S
    Zr53   O285      0.63198      .   S
    Zr148  O286      0.63127      .   S
    Zr102  O286      0.63127      .   S
    Zr149  O287      0.63127      .   S
    Zr103  O287      0.63127      .   S
    Zr167  O288      0.63127      .   S
    Zr121  O288      0.63127      .   S
    Zr168  O289      0.63127      .   S
    Zr122  O289      0.63127      .   S
    Zr53   O290      0.99181      .   S
    Zr13   O290      0.99181      .   S
    Zr52   O291      0.99181      .   S
    Zr15   O291      0.99181      .   S
    Zr125  O292      0.63198      .   S
    Zr33   O292      0.63198      .   S
    Zr126  O293      0.63198      .   S
    Zr34   O293      0.63198      .   S
    Zr15   O294      1.00174      .   S
    Zr103  O294      1.00174      .   S
    Zr15   O295      1.11642      .   S
    Zr183  O295      1.11642      .   S
    Zr15   O296      0.99516      .   S
    Zr61   O296      0.99516      .   S
    Zr13   O297      1.00174      .   S
    Zr102  O297      1.00174      .   S
    Zr13   O298      1.11642      .   S
    Zr181  O298      1.11642      .   S
    Zr13   O299      0.99516      .   S
    Zr59   O299      0.99516      .   S
    Zr121  O300      1.00174      .   S
    Zr20   O300      1.00174      .   S
    Zr122  O301      1.00174      .   S
    Zr21   O301      1.00174      .   S
    Zr20   O302      0.99181      .   S
    Zr34   O302      0.99181      .   S
    Zr20   O303      1.11642      .   S
    Zr188  O303      1.11642      .   S
    Zr20   O304      0.99646      .   S
    Zr83   O304      0.99646      .   S
    Zr21   O305      0.99181      .   S
    Zr33   O305      0.99181      .   S
    Zr21   O306      1.11642      .   S
    Zr189  O306      1.11642      .   S
    Zr21   O307      0.99646      .   S
    Zr81   O307      0.99646      .   S
    Zr105  O308      0.63127      .   S
    Zr151  O308      0.63127      .   S
    Zr107  O309      0.63127      .   S
    Zr153  O309      0.63127      .   S
    Zr35   O310      0.63198      .   S
    Zr127  O310      0.63198      .   S
    Zr37   O311      0.63198      .   S
    Zr129  O311      0.63198      .   S
    Zr59   O312      0.62169      .   S
    Zr151  O312      0.62169      .   S
    Zr61   O313      0.62169      .   S
    Zr153  O313      0.62169      .   S
    Zr83   O314      0.63293      .   S
    Zr129  O314      0.63293      .   S
    Zr81   O315      0.63293      .   S
    Zr127  O315      0.63293      .   S
    Zr128  O316      0.63293      .   S
    Zr82   O316      0.63293      .   S
    Zr128  O317      0.63198      .   S
    Zr36   O317      0.63198      .   S
    Zr130  O318      0.63293      .   S
    Zr84   O318      0.63293      .   S
    Zr130  O319      0.63198      .   S
    Zr38   O319      0.63198      .   S
    Zr82   O320      0.99646      .   S
    Zr23   O320      0.99646      .   S
    Zr84   O321      0.99646      .   S
    Zr22   O321      0.99646      .   S
    Zr190  O322      1.11642      .   S
    Zr22   O322      1.11642      .   S
    Zr191  O323      1.11642      .   S
    Zr23   O323      1.11642      .   S
    Zr150  O324      0.62169      .   S
    Zr58   O324      0.62169      .   S
    Zr150  O325      0.63127      .   S
    Zr104  O325      0.63127      .   S
    Zr152  O326      0.62169      .   S
    Zr60   O326      0.62169      .   S
    Zr152  O327      0.63127      .   S
    Zr106  O327      0.63127      .   S
    Zr58   O328      0.99516      .   S
    Zr12   O328      0.99516      .   S
    Zr60   O329      0.99516      .   S
    Zr14   O329      0.99516      .   S
    Zr180  O330      1.11642      .   S
    Zr12   O330      1.11642      .   S
    Zr182  O331      1.11642      .   S
    Zr14   O331      1.11642      .   S
    Zr36   O332      0.99181      .   S
    Zr31   O332      0.99181      .   S
    Zr38   O333      0.99181      .   S
    Zr28   O333      0.99181      .   S
    Zr32   O334      0.99181      .   S
    Zr23   O334      0.99181      .   S
    Zr32   O335      0.63198      .   S
    Zr124  O335      0.63198      .   S
    Zr1    O336      0.99181      .   S
    Zr22   O336      0.99181      .   S
    Zr1    O337      0.63198      .   S
    Zr5    O337      0.63198      .   S
    Zr104  O338      1.00174      .   S
    Zr18   O338      1.00174      .   S
    Zr106  O339      1.00174      .   S
    Zr17   O339      1.00174      .   S
    Zr101  O340      1.00174      .   S
    Zr12   O340      1.00174      .   S
    Zr101  O341      0.63127      .   S
    Zr147  O341      0.63127      .   S
    Zr4    O342      1.00174      .   S
    Zr14   O342      1.00174      .   S
    Zr4    O343      0.63127      .   S
    Zr6    O343      0.63127      .   S
    Zr22   O344      1.00174      .   S
    Zr120  O344      1.00174      .   S
    Zr22   O345      0.99516      .   S
    Zr68   O345      0.99516      .   S
    Zr22   O346      0.93122      .   S
    Zr175  O346      0.93122      .   S
    Zr23   O347      1.00174      .   S
    Zr123  O347      1.00174      .   S
    Zr23   O348      0.99516      .   S
    Zr69   O348      0.99516      .   S
    Zr120  O349      0.63127      .   S
    Zr166  O349      0.63127      .   S
    Zr123  O350      0.63127      .   S
    Zr169  O350      0.63127      .   S
    Zr14   O351      0.99181      .   S
    Zr51   O351      0.99181      .   S
    Zr14   O352      0.99646      .   S
    Zr92   O352      0.99646      .   S
    Zr12   O353      0.99181      .   S
    Zr54   O353      0.99181      .   S
    Zr12   O354      0.99646      .   S
    Zr91   O354      0.99646      .   S
    Zr124  O355      0.63293      .   S
    Zr78   O355      0.63293      .   S
    Zr5    O356      0.63293      .   S
    Zr3    O356      0.63293      .   S
    Zr51   O357      0.63198      .   S
    Zr143  O357      0.63198      .   S
    Zr54   O358      0.63198      .   S
    Zr146  O358      0.63198      .   S
    Zr169  O359      0.62169      .   S
    Zr77   O359      0.62169      .   S
    Zr166  O360      0.62169      .   S
    Zr74   O360      0.62169      .   S
    Zr147  O361      0.62169      .   S
    Zr55   O361      0.62169      .   S
    Zr6    O362      0.62169      .   S
    Zr2    O362      0.62169      .   S
    Zr146  O363      0.63293      .   S
    Zr100  O363      0.63293      .   S
    Zr143  O364      0.63293      .   S
    Zr97   O364      0.63293      .   S
    Zr77   O365      0.99516      .   S
    Zr31   O365      0.99516      .   S
    Zr74   O366      0.99516      .   S
    Zr28   O366      0.99516      .   S
    Zr68   O367      0.62169      .   S
    Zr160  O367      0.62169      .   S
    Zr69   O368      0.62169      .   S
    Zr161  O368      0.62169      .   S
    Zr196  O369      1.11642      .   S
    Zr28   O369      1.11642      .   S
    Zr199  O370      1.11642      .   S
    Zr31   O370      1.11642      .   S
    Zr31   O371      0.93122      .   S
    Zr176  O371      0.93122      .   S
    Zr31   O372      0.99646      .   S
    Zr86   O372      0.99646      .   S
    Zr31   O373      1.00174      .   S
    Zr119  O373      1.00174      .   S
    Zr28   O374      0.99646      .   S
    Zr87   O374      0.99646      .   S
    Zr28   O375      1.00174      .   S
    Zr117  O375      1.00174      .   S
    Zr176  O376      0.93122      .   S
    Zr27   O376      0.93122      .   S
    Zr175  O377      0.93122      .   S
    Zr25   O377      0.93122      .   S
    Zr97   O378      0.99646      .   S
    Zr17   O378      0.99646      .   S
    Zr100  O379      0.99646      .   S
    Zr18   O379      0.99646      .   S
    Zr92   O380      0.63293      .   S
    Zr138  O380      0.63293      .   S
    Zr91   O381      0.63293      .   S
    Zr137  O381      0.63293      .   S
    Zr3    O382      0.99646      .   S
    Zr25   O382      0.99646      .   S
    Zr78   O383      0.99646      .   S
    Zr27   O383      0.99646      .   S
    Zr86   O384      0.63293      .   S
    Zr132  O384      0.63293      .   S
    Zr87   O385      0.63293      .   S
    Zr133  O385      0.63293      .   S
    Zr170  O386      0.93122      .   S
    Zr18   O386      0.93122      .   S
    Zr170  O387      0.93122      .   S
    Zr9    O387      0.93122      .   S
    Zr7    O388      0.93122      .   S
    Zr17   O388      0.93122      .   S
    Zr7    O389      0.93122      .   S
    Zr0    O389      0.93122      .   S
    Zr17   O390      1.11642      .   S
    Zr185  O390      1.11642      .   S
    Zr17   O391      0.99516      .   S
    Zr63   O391      0.99516      .   S
    Zr17   O392      0.99181      .   S
    Zr49   O392      0.99181      .   S
    Zr18   O393      1.11642      .   S
    Zr186  O393      1.11642      .   S
    Zr18   O394      0.99516      .   S
    Zr64   O394      0.99516      .   S
    Zr18   O395      0.99181      .   S
    Zr47   O395      0.99181      .   S
    Zr2    O396      0.99516      .   S
    Zr0    O396      0.99516      .   S
    Zr55   O397      0.99516      .   S
    Zr9    O397      0.99516      .   S
    Zr63   O398      0.62169      .   S
    Zr155  O398      0.62169      .   S
    Zr64   O399      0.62169      .   S
    Zr156  O399      0.62169      .   S
    Zr133  O400      0.63198      .   S
    Zr41   O400      0.63198      .   S
    Zr132  O401      0.63198      .   S
    Zr40   O401      0.63198      .   S
    Zr160  O402      0.63127      .   S
    Zr114  O402      0.63127      .   S
    Zr161  O403      0.63127      .   S
    Zr115  O403      0.63127      .   S
    Zr156  O404      0.63127      .   S
    Zr110  O404      0.63127      .   S
    Zr155  O405      0.63127      .   S
    Zr109  O405      0.63127      .   S
    Zr40   O406      0.99181      .   S
    Zr27   O406      0.99181      .   S
    Zr41   O407      0.99181      .   S
    Zr25   O407      0.99181      .   S
    Zr138  O408      0.63198      .   S
    Zr46   O408      0.63198      .   S
    Zr137  O409      0.63198      .   S
    Zr45   O409      0.63198      .   S
    Zr25   O410      1.00174      .   S
    Zr114  O410      1.00174      .   S
    Zr25   O411      1.11642      .   S
    Zr193  O411      1.11642      .   S
    Zr25   O412      0.99516      .   S
    Zr71   O412      0.99516      .   S
    Zr27   O413      1.00174      .   S
    Zr115  O413      1.00174      .   S
    Zr27   O414      1.11642      .   S
    Zr195  O414      1.11642      .   S
    Zr27   O415      0.99516      .   S
    Zr73   O415      0.99516      .   S
    Zr110  O416      1.00174      .   S
    Zr9    O416      1.00174      .   S
    Zr109  O417      1.00174      .   S
    Zr0    O417      1.00174      .   S
    Zr9    O418      0.99181      .   S
    Zr45   O418      0.99181      .   S
    Zr9    O419      1.11642      .   S
    Zr177  O419      1.11642      .   S
    Zr9    O420      0.99646      .   S
    Zr93   O420      0.99646      .   S
    Zr0    O421      0.99181      .   S
    Zr46   O421      0.99181      .   S
    Zr0    O422      1.11642      .   S
    Zr8    O422      1.11642      .   S
    Zr0    O423      0.99646      .   S
    Zr95   O423      0.99646      .   S
    Zr119  O424      0.63127      .   S
    Zr165  O424      0.63127      .   S
    Zr117  O425      0.63127      .   S
    Zr163  O425      0.63127      .   S
    Zr49   O426      0.63198      .   S
    Zr141  O426      0.63198      .   S
    Zr47   O427      0.63198      .   S
    Zr139  O427      0.63198      .   S
    Zr71   O428      0.62169      .   S
    Zr163  O428      0.62169      .   S
    Zr73   O429      0.62169      .   S
    Zr165  O429      0.62169      .   S
    Zr93   O430      0.63293      .   S
    Zr139  O430      0.63293      .   S
    Zr95   O431      0.63293      .   S
    Zr141  O431      0.63293      .   S
    Zr7    O432      0.93122      .   S
    Zr14   O432      0.93122      .   S
    Zr170  O433      0.93122      .   S
    Zr12   O433      0.93122      .   S
    Zr171  O434      0.93122      .   S
    Zr10   O434      0.93122      .   S
    Zr172  O435      0.93122      .   S
    Zr19   O435      0.93122      .   S
    Zr173  O436      0.93122      .   S
    Zr29   O436      0.93122      .   S
    Zr174  O437      0.93122      .   S
    Zr21   O437      0.93122      .   S
    Zr175  O438      0.93122      .   S
    Zr28   O438      0.93122      .   S
    Zr176  O439      0.93122      .   S
    Zr23   O439      0.93122      .   S
    N440   O441      1.06517      .   S
    Zr148  O441      1.80176      .   S
    N440   O442      1.06805      .   S
    Zr125  O442      1.82119      .   S
    N443   O444      1.06805      .   S
    Zr124  O444      1.82119      .   S
    N443   O445      1.06517      .   S
    Zr147  O445      1.80176      .   S
    N440   O446      4.16474      .   S
    N443   O446      2.07742      .   S
    N447   O448      1.06805      .   S
    Zr131  O448      1.82119      .   S
    N447   O449      1.06517      .   S
    Zr154  O449      1.80176      .   S
    N450   O451      1.06805      .   S
    Zr134  O451      1.82119      .   S
    N450   O452      1.06517      .   S
    Zr157  O452      1.80176      .   S
    N447   O453      4.16474      .   S
    N450   O453      2.07742      .   S
    N454   O455      1.06805  1_655   S
    Zr136  O455      1.82119      .   S
    N454   O456      1.06517      .   S
    Zr159  O456      1.80176      .   S
    N457   O458      1.06805  1_455   S
    Zr137  O458      1.82119      .   S
    N457   O459      1.06517      .   S
    Zr160  O459      1.80176      .   S
    N454   O460      4.16474  1_654   S
    N457   O460      2.07742      .   S
    N461   O462      1.06805      .   S
    Zr133  O462      1.82119      .   S
    N461   O463      1.06517      .   S
    Zr156  O463      1.80176      .   S
    N464   O465      1.06805      .   S
    Zr132  O465      1.82119      .   S
    N464   O466      1.06517      .   S
    Zr155  O466      1.80176      .   S
    N464   O467      4.16474      .   S
    N461   O467      2.07742      .   S
    N468   O469      1.06805  1_545   S
    Zr143  O469      1.82119      .   S
    N468   O470      1.06517      .   S
    Zr166  O470      1.80176      .   S
    N471   O472      1.06517      .   S
    Zr169  O472      1.80176      .   S
    N471   O473      1.06805  1_565   S
    Zr146  O473      1.82119      .   S
    N468   O474      4.16474  1_445   S
    N471   O474      2.07742      .   S
    N475   O476      1.06517      .   S
    Zr158  O476      1.80176      .   S
    N475   O477      1.06805  1_455   S
    Zr135  O477      1.82119      .   S
    N478   O479      1.06517      .   S
    Zr161  O479      1.80176      .   S
    N478   O480      1.06805  1_655   S
    Zr138  O480      1.82119      .   S
    N478   O481      4.16474  1_656   S
    N475   O481      2.07742      .   S
    N482   O483      1.06517      .   S
    Zr164  O483      1.80176      .   S
    N482   O484      1.06805  1_554   S
    Zr141  O484      1.82119      .   S
    N485   O486      1.06517      .   S
    Zr163  O486      1.80176      .   S
    N485   O487      1.06805  1_556   S
    Zr140  O487      1.82119      .   S
    N485   O488      4.16474  1_546   S
    N482   O488      2.07742      .   S
    N489   O490      1.06517      .   S
    Zr151  O490      1.80176      .   S
    N489   O491      1.06805      .   S
    Zr128  O491      1.82119      .   S
    N492   O493      1.06805      .   S
    Zr129  O493      1.82119      .   S
    N492   O494      1.06517      .   S
    Zr152  O494      1.80176      .   S
    N492   O495      4.16474      .   S
    N489   O495      2.07742      .   S
    N496   O497      1.06517      .   S
    Zr150  O497      1.80176      .   S
    N496   O498      1.06805      .   S
    Zr127  O498      1.82119      .   S
    N499   O500      1.06805      .   S
    Zr130  O500      1.82119      .   S
    N499   O501      1.06517      .   S
    Zr153  O501      1.80176      .   S
    N496   O502      4.16474      .   S
    N499   O502      2.07742      .   S
    N503   O504      1.06805  1_545   S
    Zr145  O504      1.82119      .   S
    N503   O505      1.06517      .   S
    Zr168  O505      1.80176      .   S
    N506   O507      1.06805  1_565   S
    Zr144  O507      1.82119      .   S
    N506   O508      1.06517      .   S
    Zr167  O508      1.80176      .   S
    N503   O509      4.16474  1_645   S
    N506   O509      2.07742      .   S
    N510   O511      1.06517      .   S
    Zr149  O511      1.80176      .   S
    N510   O512      1.06805      .   S
    Zr126  O512      1.82119      .   S
    N513   O514      1.06517      .   S
    Zr6    O514      1.80176      .   S
    N513   O515      1.06805      .   S
    Zr5    O515      1.82119      .   S
    N510   O516      4.16474      .   S
    N513   O516      2.07742      .   S
    N517   O518      1.06517      .   S
    Zr162  O518      1.80176      .   S
    N517   O519      1.06805  1_554   S
    Zr139  O519      1.82119      .   S
    N520   O521      1.06517      .   S
    Zr165  O521      1.80176      .   S
    N520   O522      1.06805  1_556   S
    Zr142  O522      1.82119      .   S
    N520   O523      4.16474  1_566   S
    N517   O523      2.07742      .   S
