# CIF file generated by openbabel 3.1.0, see https://openbabel.org
data_I
_chemical_name_common ''
_cell_length_a 19.2889
_cell_length_b 10.6546
_cell_length_c 18.3662
_cell_angle_alpha 89.995
_cell_angle_beta 89.9771
_cell_angle_gamma 83.8106
_space_group_name_H-M_alt 'P 1'
_space_group_name_Hall 'P 1'
loop_
    _symmetry_equiv_pos_as_xyz
    x,y,z
loop_
    _atom_site_label
    _atom_site_type_symbol
    _atom_site_fract_x
    _atom_site_fract_y
    _atom_site_fract_z
    _atom_site_occupancy
    N0       N        0.82322    0.15572    0.49142    1.000
    N1       N        0.31829    0.18264    0.00174    1.000
    N2       N        0.84554    0.65521    0.00214    1.000
    Zr3      Zr       0.82131    0.16722    0.99979    1.000
    O4       O        0.82179    0.16435    0.83914    1.000
    O5       O        0.82178    0.16434    0.15626    1.000
    O6       O        0.95819    0.16975    0.00028    1.000
    O7       O        0.68292    0.17239    0.00028    1.000
    O8       O        0.82678    0.31207    0.00038    1.000
    O9       O        0.82795    0.01636    0.00038    1.000
loop_
    _geom_bond_atom_site_label_1
    _geom_bond_atom_site_label_2
    _geom_bond_distance
    _geom_bond_site_symmetry_2
    _ccdc_geom_bond_type
    Zr3    O4        2.95068      .   S
    N0     O4        6.38706      .   S
    Zr3    O5        2.87378  1_556   S
    N0     O5        6.15638      .   S
    N1     O6        6.96227  1_455   S
    Zr3    O6        2.64331  1_556   S
    N1     O7        7.02236      .   S
    Zr3    O7        2.66394  1_556   S
    N2     O8        3.71260      .   S
    Zr3    O8        1.55831  1_556   S
    N2     O9        3.82635  1_565   S
    Zr3    O9        1.59862  1_556   S
