# CIF file generated by openbabel 2.4.90, see http://openbabel.sf.net
data_I
_chemical_name_common ''
_cell_length_a 21.8827
_cell_length_b 21.8827
_cell_length_c 21.8827
_cell_angle_alpha 90
_cell_angle_beta 90
_cell_angle_gamma 90
_space_group_name_H-M_alt 'P 1'
_space_group_name_Hall 'P 1'
loop_
    _symmetry_equiv_pos_as_xyz
    x,y,z
loop_
    _atom_site_label
    _atom_site_type_symbol
    _atom_site_fract_x
    _atom_site_fract_y
    _atom_site_fract_z
    _atom_site_occupancy
    O0      O    0.20410   0.34985   0.66800   1.000
    O1      O    0.22500   0.62535   0.76490   1.000
    O2      O    0.24470   0.39254   0.75233   1.000
    O3      O    0.18810   0.67056   0.68180   1.000
    C4      C    0.22150   0.39510   0.69940   1.000
    C5      C    0.21700   0.51050   0.70440   1.000
    H6      H    0.22327   0.50853   0.74642   1.000
    C7      C    0.21550   0.45720   0.67030   1.000
    C8      C    0.20860   0.62490   0.71050   1.000
    C9      C    0.20920   0.56690   0.67630   1.000
    C10     C    0.20890   0.46020   0.60810   1.000
    H11     H    0.20765   0.42441   0.58511   1.000
    N12     N    0.20220   0.52380   0.51410   1.000
    C13     C    0.20410   0.51590   0.57970   1.000
    C14     C    0.20320   0.56950   0.61290   1.000
    H15     H    0.19864   0.60686   0.59323   1.000
    O16     O    0.24044   0.75956   0.75956   1.000
    O17     O    0.79590   0.65015   0.66800   1.000
    O18     O    0.79590   0.34985   0.33200   1.000
    O19     O    0.20410   0.65015   0.33200   1.000
    O20     O    0.66800   0.20410   0.34985   1.000
    O21     O    0.66800   0.79590   0.65015   1.000
    O22     O    0.33200   0.79590   0.34985   1.000
    O23     O    0.33200   0.20410   0.65015   1.000
    O24     O    0.34985   0.66800   0.20410   1.000
    O25     O    0.65015   0.66800   0.79590   1.000
    O26     O    0.34985   0.33200   0.79590   1.000
    O27     O    0.65015   0.33200   0.20410   1.000
    O28     O    0.84985   0.70410   0.16800   1.000
    O29     O    0.15015   0.29590   0.16800   1.000
    O30     O    0.84985   0.29590   0.83200   1.000
    O31     O    0.15015   0.70410   0.83200   1.000
    O32     O    0.70410   0.16800   0.84985   1.000
    O33     O    0.29590   0.16800   0.15015   1.000
    O34     O    0.29590   0.83200   0.84985   1.000
    O35     O    0.70410   0.83200   0.15015   1.000
    O36     O    0.16800   0.84985   0.70410   1.000
    O37     O    0.16800   0.15015   0.29590   1.000
    O38     O    0.83200   0.84985   0.29590   1.000
    O39     O    0.83200   0.15015   0.70410   1.000
    O40     O    0.77500   0.37465   0.76490   1.000
    O41     O    0.77500   0.62535   0.23510   1.000
    O42     O    0.22500   0.37465   0.23510   1.000
    O43     O    0.76490   0.22500   0.62535   1.000
    O44     O    0.76490   0.77500   0.37465   1.000
    O45     O    0.23510   0.77500   0.62535   1.000
    O46     O    0.23510   0.22500   0.37465   1.000
    O47     O    0.62535   0.76490   0.22500   1.000
    O48     O    0.37465   0.76490   0.77500   1.000
    O49     O    0.62535   0.23510   0.77500   1.000
    O50     O    0.37465   0.23510   0.22500   1.000
    O51     O    0.12535   0.72500   0.26490   1.000
    O52     O    0.87465   0.27500   0.26490   1.000
    O53     O    0.12535   0.27500   0.73510   1.000
    O54     O    0.87465   0.72500   0.73510   1.000
    O55     O    0.72500   0.26490   0.12535   1.000
    O56     O    0.27500   0.26490   0.87465   1.000
    O57     O    0.27500   0.73510   0.12535   1.000
    O58     O    0.72500   0.73510   0.87465   1.000
    O59     O    0.26490   0.12535   0.72500   1.000
    O60     O    0.26490   0.87465   0.27500   1.000
    O61     O    0.73510   0.12535   0.27500   1.000
    O62     O    0.73510   0.87465   0.72500   1.000
    O63     O    0.75530   0.60746   0.75233   1.000
    O64     O    0.75530   0.39254   0.24767   1.000
    O65     O    0.24470   0.60746   0.24767   1.000
    O66     O    0.75233   0.24470   0.39254   1.000
    O67     O    0.75233   0.75530   0.60746   1.000
    O68     O    0.24767   0.75530   0.39254   1.000
    O69     O    0.24767   0.24470   0.60746   1.000
    O70     O    0.39254   0.75233   0.24470   1.000
    O71     O    0.60746   0.75233   0.75530   1.000
    O72     O    0.39254   0.24767   0.75530   1.000
    O73     O    0.60746   0.24767   0.24470   1.000
    O74     O    0.89254   0.74470   0.25233   1.000
    H75     H    0.24642   0.00853   0.72327   1.000
    H76     H    0.24642   0.99147   0.27673   1.000
    O77     O    0.10746   0.25530   0.25233   1.000
    O78     O    0.89254   0.25530   0.74767   1.000
    O79     O    0.10746   0.74470   0.74767   1.000
    O80     O    0.74470   0.25233   0.89254   1.000
    O81     O    0.25530   0.25233   0.10746   1.000
    O82     O    0.25530   0.74767   0.89254   1.000
    O83     O    0.74470   0.74767   0.10746   1.000
    O84     O    0.25233   0.89254   0.74470   1.000
    O85     O    0.25233   0.10746   0.25530   1.000
    O86     O    0.74767   0.89254   0.25530   1.000
    O87     O    0.74767   0.10746   0.74470   1.000
    O88     O    0.81190   0.32944   0.68180   1.000
    O89     O    0.81190   0.67056   0.31820   1.000
    O90     O    0.18810   0.32944   0.31820   1.000
    O91     O    0.68180   0.18810   0.67056   1.000
    O92     O    0.68180   0.81190   0.32944   1.000
    O93     O    0.31820   0.81190   0.67056   1.000
    O94     O    0.31820   0.18810   0.32944   1.000
    O95     O    0.67056   0.68180   0.18810   1.000
    O96     O    0.32944   0.68180   0.81190   1.000
    O97     O    0.67056   0.31820   0.81190   1.000
    O98     O    0.32944   0.31820   0.18810   1.000
    O99     O    0.17056   0.68810   0.18180   1.000
    O100    O    0.82944   0.31190   0.18180   1.000
    O101    O    0.17056   0.31190   0.81820   1.000
    O102    O    0.82944   0.68810   0.81820   1.000
    O103    O    0.68810   0.18180   0.17056   1.000
    O104    O    0.31190   0.18180   0.82944   1.000
    C105    C    0.56690   0.32370   0.79080   1.000
    C106    C    0.43310   0.32370   0.20920   1.000
    C107    C    0.06690   0.70920   0.17630   1.000
    O108    O    0.31190   0.81820   0.17056   1.000
    O109    O    0.68810   0.81820   0.82944   1.000
    O110    O    0.18180   0.17056   0.68810   1.000
    O111    O    0.18180   0.82944   0.31190   1.000
    O112    O    0.81820   0.17056   0.31190   1.000
    O113    O    0.81820   0.82944   0.68810   1.000
    C114    C    0.77850   0.60490   0.69940   1.000
    C115    C    0.77850   0.39510   0.30060   1.000
    C116    C    0.22150   0.60490   0.30060   1.000
    C117    C    0.69940   0.22150   0.39510   1.000
    C118    C    0.69940   0.77850   0.60490   1.000
    C119    C    0.30060   0.77850   0.39510   1.000
    C120    C    0.30060   0.22150   0.60490   1.000
    C121    C    0.39510   0.69940   0.22150   1.000
    C122    C    0.60490   0.69940   0.77850   1.000
    C123    C    0.39510   0.30060   0.77850   1.000
    C124    C    0.60490   0.30060   0.22150   1.000
    C125    C    0.89510   0.72150   0.19940   1.000
    C126    C    0.10490   0.27850   0.19940   1.000
    C127    C    0.89510   0.27850   0.80060   1.000
    C128    C    0.10490   0.72150   0.80060   1.000
    C129    C    0.72150   0.19940   0.89510   1.000
    C130    C    0.27850   0.19940   0.10490   1.000
    C131    C    0.27850   0.80060   0.89510   1.000
    C132    C    0.72150   0.80060   0.10490   1.000
    C133    C    0.19940   0.89510   0.72150   1.000
    C134    C    0.19940   0.10490   0.27850   1.000
    C135    C    0.80060   0.89510   0.27850   1.000
    C136    C    0.80060   0.10490   0.72150   1.000
    C137    C    0.78300   0.48950   0.70440   1.000
    C138    C    0.78300   0.51050   0.29560   1.000
    C139    C    0.21700   0.48950   0.29560   1.000
    C140    C    0.70440   0.21700   0.51050   1.000
    C141    C    0.70440   0.78300   0.48950   1.000
    C142    C    0.29560   0.78300   0.51050   1.000
    C143    C    0.29560   0.21700   0.48950   1.000
    C144    C    0.51050   0.70440   0.21700   1.000
    C145    C    0.48950   0.70440   0.78300   1.000
    C146    C    0.51050   0.29560   0.78300   1.000
    C147    C    0.48950   0.29560   0.21700   1.000
    C148    C    0.01050   0.71700   0.20440   1.000
    C149    C    0.98950   0.28300   0.20440   1.000
    C150    C    0.01050   0.28300   0.79560   1.000
    C151    C    0.98950   0.71700   0.79560   1.000
    C152    C    0.71700   0.20440   0.01050   1.000
    C153    C    0.28300   0.20440   0.98950   1.000
    C154    C    0.28300   0.79560   0.01050   1.000
    C155    C    0.71700   0.79560   0.98950   1.000
    C156    C    0.20440   0.01050   0.71700   1.000
    C157    C    0.20440   0.98950   0.28300   1.000
    C158    C    0.79560   0.01050   0.28300   1.000
    C159    C    0.79560   0.98950   0.71700   1.000
    H160    H    0.77673   0.49147   0.74642   1.000
    H161    H    0.77673   0.50853   0.25358   1.000
    H162    H    0.22327   0.49147   0.25358   1.000
    H163    H    0.74642   0.22327   0.50853   1.000
    H164    H    0.74642   0.77673   0.49147   1.000
    H165    H    0.25358   0.77673   0.50853   1.000
    H166    H    0.25358   0.22327   0.49147   1.000
    H167    H    0.50853   0.74642   0.22327   1.000
    H168    H    0.49147   0.74642   0.77673   1.000
    H169    H    0.50853   0.25358   0.77673   1.000
    H170    H    0.49147   0.25358   0.22327   1.000
    H171    H    0.00853   0.72327   0.24642   1.000
    H172    H    0.99147   0.27673   0.24642   1.000
    H173    H    0.00853   0.27673   0.75358   1.000
    H174    H    0.99147   0.72327   0.75358   1.000
    H175    H    0.72327   0.24642   0.00853   1.000
    H176    H    0.27673   0.24642   0.99147   1.000
    H177    H    0.27673   0.75358   0.00853   1.000
    H178    H    0.72327   0.75358   0.99147   1.000
    H179    H    0.39314   0.40677   0.19864   1.000
    H180    H    0.10686   0.69864   0.09323   1.000
    H181    H    0.89314   0.30136   0.09323   1.000
    H182    H    0.10686   0.30136   0.90677   1.000
    H183    H    0.89314   0.69864   0.90677   1.000
    H184    H    0.69864   0.09323   0.10686   1.000
    H185    H    0.75358   0.00853   0.27673   1.000
    H186    H    0.75358   0.99147   0.72327   1.000
    C187    C    0.78450   0.54280   0.67030   1.000
    C188    C    0.78450   0.45720   0.32970   1.000
    C189    C    0.21550   0.54280   0.32970   1.000
    C190    C    0.67030   0.21550   0.45720   1.000
    C191    C    0.67030   0.78450   0.54280   1.000
    C192    C    0.32970   0.78450   0.45720   1.000
    C193    C    0.32970   0.21550   0.54280   1.000
    C194    C    0.45720   0.67030   0.21550   1.000
    C195    C    0.54280   0.67030   0.78450   1.000
    C196    C    0.45720   0.32970   0.78450   1.000
    C197    C    0.54280   0.32970   0.21550   1.000
    C198    C    0.95720   0.71550   0.17030   1.000
    C199    C    0.04280   0.28450   0.17030   1.000
    C200    C    0.95720   0.28450   0.82970   1.000
    C201    C    0.04280   0.71550   0.82970   1.000
    C202    C    0.71550   0.17030   0.95720   1.000
    C203    C    0.28450   0.17030   0.04280   1.000
    C204    C    0.28450   0.82970   0.95720   1.000
    C205    C    0.71550   0.82970   0.04280   1.000
    C206    C    0.17030   0.95720   0.71550   1.000
    C207    C    0.17030   0.04280   0.28450   1.000
    C208    C    0.82970   0.95720   0.28450   1.000
    C209    C    0.82970   0.04280   0.71550   1.000
    C210    C    0.56690   0.67630   0.20920   1.000
    C211    C    0.43310   0.67630   0.79080   1.000
    C212    C    0.79140   0.37510   0.71050   1.000
    C213    C    0.79140   0.62490   0.28950   1.000
    C214    C    0.20860   0.37510   0.28950   1.000
    C215    C    0.71050   0.20860   0.62490   1.000
    C216    C    0.71050   0.79140   0.37510   1.000
    C217    C    0.28950   0.79140   0.62490   1.000
    C218    C    0.28950   0.20860   0.37510   1.000
    C219    C    0.62490   0.71050   0.20860   1.000
    C220    C    0.37510   0.71050   0.79140   1.000
    C221    C    0.62490   0.28950   0.79140   1.000
    C222    C    0.37510   0.28950   0.20860   1.000
    C223    C    0.12490   0.70860   0.21050   1.000
    C224    C    0.87510   0.29140   0.21050   1.000
    C225    C    0.12490   0.29140   0.78950   1.000
    C226    C    0.87510   0.70860   0.78950   1.000
    C227    C    0.70860   0.21050   0.12490   1.000
    C228    C    0.29140   0.21050   0.87510   1.000
    C229    C    0.29140   0.78950   0.12490   1.000
    C230    C    0.70860   0.78950   0.87510   1.000
    C231    C    0.21050   0.12490   0.70860   1.000
    C232    C    0.21050   0.87510   0.29140   1.000
    C233    C    0.78950   0.12490   0.29140   1.000
    C234    C    0.78950   0.87510   0.70860   1.000
    C235    C    0.53980   0.60810   0.79110   1.000
    C236    C    0.79080   0.43310   0.67630   1.000
    C237    C    0.79080   0.56690   0.32370   1.000
    C238    C    0.20920   0.43310   0.32370   1.000
    C239    C    0.67630   0.20920   0.56690   1.000
    C240    C    0.67630   0.79080   0.43310   1.000
    C241    C    0.32370   0.79080   0.56690   1.000
    C242    C    0.32370   0.20920   0.43310   1.000
    C243    C    0.93310   0.29080   0.17630   1.000
    C244    C    0.06690   0.29080   0.82370   1.000
    C245    C    0.93310   0.70920   0.82370   1.000
    C246    C    0.70920   0.17630   0.06690   1.000
    C247    C    0.29080   0.17630   0.93310   1.000
    C248    C    0.29080   0.82370   0.06690   1.000
    C249    C    0.70920   0.82370   0.93310   1.000
    C250    C    0.17630   0.06690   0.70920   1.000
    C251    C    0.17630   0.93310   0.29080   1.000
    C252    C    0.82370   0.06690   0.29080   1.000
    C253    C    0.82370   0.93310   0.70920   1.000
    C254    C    0.79110   0.53980   0.60810   1.000
    C255    C    0.79110   0.46020   0.39190   1.000
    C256    C    0.20890   0.53980   0.39190   1.000
    C257    C    0.60810   0.20890   0.46020   1.000
    C258    C    0.60810   0.79110   0.53980   1.000
    C259    C    0.39190   0.79110   0.46020   1.000
    C260    C    0.39190   0.20890   0.53980   1.000
    C261    C    0.46020   0.60810   0.20890   1.000
    C262    C    0.46020   0.39190   0.79110   1.000
    C263    C    0.53980   0.39190   0.20890   1.000
    C264    C    0.96020   0.70890   0.10810   1.000
    C265    C    0.03980   0.29110   0.10810   1.000
    C266    C    0.96020   0.29110   0.89190   1.000
    C267    C    0.03980   0.70890   0.89190   1.000
    C268    C    0.70890   0.10810   0.96020   1.000
    C269    C    0.29110   0.10810   0.03980   1.000
    C270    C    0.29110   0.89190   0.96020   1.000
    C271    C    0.70890   0.89190   0.03980   1.000
    C272    C    0.10810   0.96020   0.70890   1.000
    C273    C    0.10810   0.03980   0.29110   1.000
    C274    C    0.89190   0.96020   0.29110   1.000
    C275    C    0.89190   0.03980   0.70890   1.000
    H276    H    0.79235   0.57559   0.58511   1.000
    H277    H    0.79235   0.42441   0.41489   1.000
    H278    H    0.20765   0.57559   0.41489   1.000
    H279    H    0.58511   0.20765   0.42441   1.000
    H280    H    0.58511   0.79235   0.57559   1.000
    H281    H    0.41489   0.79235   0.42441   1.000
    H282    H    0.41489   0.20765   0.57559   1.000
    H283    H    0.42441   0.58511   0.20765   1.000
    H284    H    0.57559   0.58511   0.79235   1.000
    H285    H    0.42441   0.41489   0.79235   1.000
    H286    H    0.57559   0.41489   0.20765   1.000
    H287    H    0.92441   0.70765   0.08511   1.000
    H288    H    0.07559   0.29235   0.08511   1.000
    H289    H    0.92441   0.29235   0.91489   1.000
    H290    H    0.07559   0.70765   0.91489   1.000
    H291    H    0.70765   0.08511   0.92441   1.000
    H292    H    0.29235   0.08511   0.07559   1.000
    H293    H    0.29235   0.91489   0.92441   1.000
    H294    H    0.70765   0.91489   0.07559   1.000
    H295    H    0.08511   0.92441   0.70765   1.000
    H296    H    0.08511   0.07559   0.29235   1.000
    H297    H    0.91489   0.92441   0.29235   1.000
    H298    H    0.91489   0.07559   0.70765   1.000
    N299    N    0.79780   0.47620   0.51410   1.000
    N300    N    0.79780   0.52380   0.48590   1.000
    N301    N    0.20220   0.47620   0.48590   1.000
    N302    N    0.51410   0.20220   0.52380   1.000
    N303    N    0.51410   0.79780   0.47620   1.000
    N304    N    0.48590   0.79780   0.52380   1.000
    N305    N    0.48590   0.20220   0.47620   1.000
    N306    N    0.52380   0.51410   0.20220   1.000
    N307    N    0.47620   0.51410   0.79780   1.000
    N308    N    0.52380   0.48590   0.79780   1.000
    N309    N    0.47620   0.48590   0.20220   1.000
    N310    N    0.02380   0.70220   0.01410   1.000
    N311    N    0.97620   0.29780   0.01410   1.000
    N312    N    0.02380   0.29780   0.98590   1.000
    N313    N    0.97620   0.70220   0.98590   1.000
    N314    N    0.70220   0.01410   0.02380   1.000
    N315    N    0.29780   0.01410   0.97620   1.000
    N316    N    0.29780   0.98590   0.02380   1.000
    N317    N    0.70220   0.98590   0.97620   1.000
    N318    N    0.01410   0.02380   0.70220   1.000
    N319    N    0.01410   0.97620   0.29780   1.000
    N320    N    0.98590   0.02380   0.29780   1.000
    N321    N    0.98590   0.97620   0.70220   1.000
    C322    C    0.79590   0.48410   0.57970   1.000
    C323    C    0.79590   0.51590   0.42030   1.000
    C324    C    0.20410   0.48410   0.42030   1.000
    C325    C    0.57970   0.20410   0.51590   1.000
    C326    C    0.57970   0.79590   0.48410   1.000
    C327    C    0.42030   0.79590   0.51590   1.000
    C328    C    0.42030   0.20410   0.48410   1.000
    C329    C    0.51590   0.57970   0.20410   1.000
    C330    C    0.48410   0.57970   0.79590   1.000
    C331    C    0.51590   0.42030   0.79590   1.000
    C332    C    0.48410   0.42030   0.20410   1.000
    C333    C    0.01590   0.70410   0.07970   1.000
    C334    C    0.98410   0.29590   0.07970   1.000
    C335    C    0.01590   0.29590   0.92030   1.000
    C336    C    0.98410   0.70410   0.92030   1.000
    C337    C    0.70410   0.07970   0.01590   1.000
    C338    C    0.29590   0.07970   0.98410   1.000
    C339    C    0.29590   0.92030   0.01590   1.000
    C340    C    0.70410   0.92030   0.98410   1.000
    C341    C    0.07970   0.01590   0.70410   1.000
    C342    C    0.07970   0.98410   0.29590   1.000
    C343    C    0.92030   0.01590   0.29590   1.000
    C344    C    0.92030   0.98410   0.70410   1.000
    C345    C    0.79680   0.43050   0.61290   1.000
    C346    C    0.79680   0.56950   0.38710   1.000
    C347    C    0.20320   0.43050   0.38710   1.000
    C348    C    0.61290   0.20320   0.56950   1.000
    C349    C    0.61290   0.79680   0.43050   1.000
    C350    C    0.38710   0.79680   0.56950   1.000
    C351    C    0.38710   0.20320   0.43050   1.000
    C352    C    0.56950   0.61290   0.20320   1.000
    C353    C    0.43050   0.61290   0.79680   1.000
    C354    C    0.56950   0.38710   0.79680   1.000
    C355    C    0.43050   0.38710   0.20320   1.000
    C356    C    0.06950   0.70320   0.11290   1.000
    C357    C    0.93050   0.29680   0.11290   1.000
    C358    C    0.06950   0.29680   0.88710   1.000
    C359    C    0.93050   0.70320   0.88710   1.000
    C360    C    0.70320   0.11290   0.06950   1.000
    C361    C    0.29680   0.11290   0.93050   1.000
    C362    C    0.29680   0.88710   0.06950   1.000
    C363    C    0.70320   0.88710   0.93050   1.000
    C364    C    0.11290   0.06950   0.70320   1.000
    C365    C    0.11290   0.93050   0.29680   1.000
    C366    C    0.88710   0.06950   0.29680   1.000
    C367    C    0.88710   0.93050   0.70320   1.000
    H368    H    0.80136   0.39314   0.59323   1.000
    H369    H    0.80136   0.60686   0.40677   1.000
    H370    H    0.19864   0.39314   0.40677   1.000
    H371    H    0.59323   0.19864   0.60686   1.000
    H372    H    0.59323   0.80136   0.39314   1.000
    H373    H    0.40677   0.80136   0.60686   1.000
    H374    H    0.40677   0.19864   0.39314   1.000
    H375    H    0.60686   0.59323   0.19864   1.000
    H376    H    0.39314   0.59323   0.80136   1.000
    H377    H    0.60686   0.40677   0.80136   1.000
    H378    H    0.30136   0.09323   0.89314   1.000
    H379    H    0.30136   0.90677   0.10686   1.000
    H380    H    0.69864   0.90677   0.89314   1.000
    H381    H    0.09323   0.10686   0.69864   1.000
    H382    H    0.09323   0.89314   0.30136   1.000
    H383    H    0.90677   0.10686   0.30136   1.000
    H384    H    0.90677   0.89314   0.69864   1.000
    O385    O    0.75956   0.24044   0.75956   1.000
    O386    O    0.75956   0.75956   0.24044   1.000
    O387    O    0.24044   0.24044   0.24044   1.000
    O388    O    0.25956   0.74044   0.25956   1.000
    O389    O    0.74044   0.25956   0.25956   1.000
    O390    O    0.25956   0.25956   0.74044   1.000
    O391    O    0.74044   0.74044   0.74044   1.000
loop_
    _geom_bond_atom_site_label_1
    _geom_bond_atom_site_label_2
    _geom_bond_distance
    _geom_bond_site_symmetry_2
    _ccdc_geom_bond_type
    H175   C152      0.93071      .   S
    H177   C154      0.93071      .   S
    C152   C246      1.38941      .   S
    C152   C202      1.38501  1_554   S
    C154   C248      1.38941      .   S
    C154   C204      1.38501  1_554   S
    N311   C334      1.44647      .   S
    N311   N312      1.21069  1_654   S
    N310   C333      1.44647      .   S
    N310   N313      1.21069  1_454   S
    C337   N314      1.44647      .   S
    C337   C360      1.37983      .   S
    C337   C268      1.37218  1_554   S
    C339   N316      1.44647      .   S
    C339   C362      1.37983      .   S
    C339   C270      1.37218  1_554   S
    N316   N315      1.21069  1_564   S
    N314   N317      1.21069  1_544   S
    C269   C203      1.37032      .   S
    C269   H292      0.93113      .   S
    C269   C338      1.37218  1_554   S
    C271   C205      1.37032      .   S
    C271   H294      0.93113      .   S
    C271   C340      1.37218  1_554   S
    C205   C132      1.50645      .   S
    C205   C155      1.38501  1_554   S
    C203   C130      1.50645      .   S
    C203   C153      1.38501  1_554   S
    C246   C360      1.39472      .   S
    C246   C227      1.47347      .   S
    C248   C362      1.39472      .   S
    C248   C229      1.47347      .   S
    C360   H184      0.92930      .   S
    C362   H379      0.92930      .   S
    C333   C264      1.37218  1_455   S
    C333   C356      1.37983      .   S
    C334   C265      1.37218  1_655   S
    C334   C357      1.37983      .   S
    H287   C264      0.93113      .   S
    H288   C265      0.93113      .   S
    H181   C357      0.92930      .   S
    H180   C356      0.92930      .   S
    C130   O81       1.26587      .   S
    C130   O33       1.26396      .   S
    C132   O83       1.26587      .   S
    C132   O35       1.26396      .   S
    C264   C198      1.37032      .   S
    C265   C199      1.37032      .   S
    C356   C107      1.39472      .   S
    C357   C243      1.39472      .   S
    C229   O57       1.24338      .   S
    C229   O108      1.26253      .   S
    C227   O55       1.24338      .   S
    C227   O103      1.26253      .   S
    O29    C126      1.26396      .   S
    O28    C125      1.26396      .   S
    C199   C126      1.50645      .   S
    C199   C149      1.38501  1_455   S
    C198   C125      1.50645      .   S
    C198   C148      1.38501  1_655   S
    C243   C149      1.38941      .   S
    C243   C224      1.47347      .   S
    C107   C148      1.38941      .   S
    C107   C223      1.47347      .   S
    O100   C224      1.26253      .   S
    O99    C223      1.26253      .   S
    O98    C222      1.26253      .   S
    O95    C219      1.26253      .   S
    H375   C352      0.92930      .   S
    H179   C355      0.92930      .   S
    C126   O77       1.26587      .   S
    C125   O74       1.26587      .   S
    N306   N309      1.21069      .   S
    N306   C329      1.44647      .   S
    N309   C332      1.44647      .   S
    C355   C332      1.37983      .   S
    C355   C106      1.39472      .   S
    C352   C329      1.37983      .   S
    C352   C210      1.39472      .   S
    O27    C124      1.26396      .   S
    O24    C121      1.26396      .   S
    C329   C261      1.37218      .   S
    C332   C263      1.37218      .   S
    C148   H171      0.93071      .   S
    C149   H172      0.93071      .   S
    H286   C263      0.93113      .   S
    H283   C261      0.93113      .   S
    C222   C106      1.47347      .   S
    C222   O50       1.24338      .   S
    C219   C210      1.47347      .   S
    C219   O47       1.24338      .   S
    C263   C197      1.37032      .   S
    C261   C194      1.37032      .   S
    C106   C147      1.38941      .   S
    C210   C144      1.38941      .   S
    C224   O52       1.24338      .   S
    C223   O51       1.24338      .   S
    C194   C144      1.38501      .   S
    C194   C121      1.50645      .   S
    C197   C147      1.38501      .   S
    C197   C124      1.50645      .   S
    C147   H170      0.93071      .   S
    C144   H167      0.93071      .   S
    C121   O70       1.26587      .   S
    C124   O73       1.26587      .   S
    O41    C213      1.24338      .   S
    O42    C214      1.24338      .   S
    O64    C115      1.26587      .   S
    O65    C116      1.26587      .   S
    H162   C139      0.93071      .   S
    H161   C138      0.93071      .   S
    O86    C135      1.26587      .   S
    O85    C134      1.26587      .   S
    O60    C232      1.24338      .   S
    O61    C233      1.24338      .   S
    H185   C158      0.93071      .   S
    H76    C157      0.93071      .   S
    C134   C207      1.50645      .   S
    C134   O37       1.26396      .   S
    C135   C208      1.50645      .   S
    C135   O38       1.26396      .   S
    C158   C208      1.38501  1_545   S
    C158   C252      1.38941      .   S
    C157   C207      1.38501  1_565   S
    C157   C251      1.38941      .   S
    C208   C274      1.37032      .   S
    C207   C273      1.37032      .   S
    C213   O89       1.26253      .   S
    C213   C237      1.47347      .   S
    C214   O90       1.26253      .   S
    C214   C238      1.47347      .   S
    C252   C233      1.47347      .   S
    C252   C366      1.39472      .   S
    C251   C232      1.47347      .   S
    C251   C365      1.39472      .   S
    C273   H296      0.93113      .   S
    C273   C342      1.37218  1_545   S
    C274   H297      0.93113      .   S
    C274   C343      1.37218  1_565   S
    C232   O111      1.26253      .   S
    C233   O112      1.26253      .   S
    C139   C238      1.38941      .   S
    C139   C189      1.38501      .   S
    C138   C237      1.38941      .   S
    C138   C188      1.38501      .   S
    C343   C366      1.37983      .   S
    C343   N320      1.44647      .   S
    C342   C365      1.37983      .   S
    C342   N319      1.44647      .   S
    C365   H382      0.92930      .   S
    C366   H383      0.92930      .   S
    N320   N319      1.21069  1_645   S
    C115   C188      1.50645      .   S
    C115   O18       1.26396      .   S
    C116   C189      1.50645      .   S
    C116   O19       1.26396      .   S
    C238   C347      1.39472      .   S
    C237   C346      1.39472      .   S
    O92    C216      1.26253      .   S
    O94    C218      1.26253      .   S
    C188   C255      1.37032      .   S
    C189   C256      1.37032      .   S
    O20    C117      1.26396      .   S
    O22    C119      1.26396      .   S
    O44    C216      1.24338      .   S
    O46    C218      1.24338      .   S
    C216   C240      1.47347      .   S
    C218   C242      1.47347      .   S
    C347   H370      0.92930      .   S
    C347   C324      1.37983      .   S
    C346   H369      0.92930      .   S
    C346   C323      1.37983      .   S
    C256   H278      0.93113      .   S
    C256   C324      1.37218      .   S
    C255   H277      0.93113      .   S
    C255   C323      1.37218      .   S
    O68    C119      1.26587      .   S
    O66    C117      1.26587      .   S
    H372   C349      0.92930      .   S
    H374   C351      0.92930      .   S
    C119   C192      1.50645      .   S
    C117   C190      1.50645      .   S
    C324   N301      1.44647      .   S
    C323   N300      1.44647      .   S
    H281   C259      0.93113      .   S
    H279   C257      0.93113      .   S
    C351   C242      1.39472      .   S
    C351   C328      1.37983      .   S
    C349   C240      1.39472      .   S
    C349   C326      1.37983      .   S
    C240   C141      1.38941      .   S
    C242   C143      1.38941      .   S
    C190   C257      1.37032      .   S
    C190   C140      1.38501      .   S
    C192   C259      1.37032      .   S
    C192   C142      1.38501      .   S
    C257   C325      1.37218      .   S
    C259   C327      1.37218      .   S
    N303   C326      1.44647      .   S
    N303   N304      1.21069      .   S
    N305   C328      1.44647      .   S
    N305   N302      1.21069      .   S
    C326   C258      1.37218      .   S
    C328   C260      1.37218      .   S
    N301   N12       1.21069      .   S
    N300   N299      1.21069      .   S
    C141   H164      0.93071      .   S
    C141   C191      1.38501      .   S
    C143   H166      0.93071      .   S
    C143   C193      1.38501      .   S
    H165   C142      0.93071      .   S
    H163   C140      0.93071      .   S
    C140   C239      1.38941      .   S
    C142   C241      1.38941      .   S
    N12    C13       1.44647      .   S
    N299   C322      1.44647      .   S
    C325   N302      1.44647      .   S
    C325   C348      1.37983      .   S
    C327   N304      1.44647      .   S
    C327   C350      1.37983      .   S
    C260   C193      1.37032      .   S
    C260   H282      0.93113      .   S
    C258   C191      1.37032      .   S
    C258   H280      0.93113      .   S
    C193   C120      1.50645      .   S
    C191   C118      1.50645      .   S
    C239   C348      1.39472      .   S
    C239   C215      1.47347      .   S
    C241   C350      1.39472      .   S
    C241   C217      1.47347      .   S
    C348   H371      0.92930      .   S
    C350   H373      0.92930      .   S
    C322   C254      1.37218      .   S
    C322   C345      1.37983      .   S
    C13    C10       1.37218      .   S
    C13    C14       1.37983      .   S
    H11    C10       0.93113      .   S
    H276   C254      0.93113      .   S
    H368   C345      0.92930      .   S
    H15    C14       0.92930      .   S
    C118   O67       1.26587      .   S
    C118   O21       1.26396      .   S
    C120   O69       1.26587      .   S
    C120   O23       1.26396      .   S
    C10    C7        1.37032      .   S
    C254   C187      1.37032      .   S
    C345   C236      1.39472      .   S
    C14    C9        1.39472      .   S
    C215   O43       1.24338      .   S
    C215   O91       1.26253      .   S
    C217   O45       1.24338      .   S
    C217   O93       1.26253      .   S
    O17    C114      1.26396      .   S
    O0     C4        1.26396      .   S
    C187   C114      1.50645      .   S
    C187   C137      1.38501      .   S
    C7     C4        1.50645      .   S
    C7     C5        1.38501      .   S
    C236   C137      1.38941      .   S
    C236   C212      1.47347      .   S
    C9     C5        1.38941      .   S
    C9     C8        1.47347      .   S
    O88    C212      1.26253      .   S
    O3     C8        1.26253      .   S
    O110   C231      1.26253      .   S
    O113   C234      1.26253      .   S
    H384   C367      0.92930      .   S
    H381   C364      0.92930      .   S
    C114   O63       1.26587      .   S
    C4     O2        1.26587      .   S
    N318   N321      1.21069  1_445   S
    N318   C341      1.44647      .   S
    N321   C344      1.44647      .   S
    C367   C344      1.37983      .   S
    C367   C253      1.39472      .   S
    C364   C341      1.37983      .   S
    C364   C250      1.39472      .   S
    C341   C272      1.37218  1_545   S
    O36    C133      1.26396      .   S
    O39    C136      1.26396      .   S
    C344   C275      1.37218  1_565   S
    C137   H160      0.93071      .   S
    C5     H6        0.93071      .   S
    H298   C275      0.93113      .   S
    H295   C272      0.93113      .   S
    C234   C253      1.47347      .   S
    C234   O62       1.24338      .   S
    C231   C250      1.47347      .   S
    C231   O59       1.24338      .   S
    C272   C206      1.37032      .   S
    C275   C209      1.37032      .   S
    C253   C159      1.38941      .   S
    C250   C156      1.38941      .   S
    C212   O40       1.24338      .   S
    C8     O1        1.24338      .   S
    C206   C156      1.38501  1_565   S
    C206   C133      1.50645      .   S
    C209   C159      1.38501  1_545   S
    C209   C136      1.50645      .   S
    C156   H75       0.93071      .   S
    C159   H186      0.93071      .   S
    C136   O87       1.26587      .   S
    C133   O84       1.26587      .   S
    O53    C225      1.24338      .   S
    O54    C226      1.24338      .   S
    O79    C128      1.26587      .   S
    O78    C127      1.26587      .   S
    H173   C150      0.93071      .   S
    H174   C151      0.93071      .   S
    O71    C122      1.26587      .   S
    O72    C123      1.26587      .   S
    O48    C220      1.24338      .   S
    O49    C221      1.24338      .   S
    H169   C146      0.93071      .   S
    H168   C145      0.93071      .   S
    C123   C196      1.50645      .   S
    C123   O26       1.26396      .   S
    C122   C195      1.50645      .   S
    C122   O25       1.26396      .   S
    C146   C196      1.38501      .   S
    C146   C105      1.38941      .   S
    C145   C195      1.38501      .   S
    C145   C211      1.38941      .   S
    C195   C235      1.37032      .   S
    C196   C262      1.37032      .   S
    C225   O101      1.26253      .   S
    C225   C244      1.47347      .   S
    C226   O102      1.26253      .   S
    C226   C245      1.47347      .   S
    C211   C220      1.47347      .   S
    C211   C353      1.39472      .   S
    C105   C221      1.47347      .   S
    C105   C354      1.39472      .   S
    C235   H284      0.93113      .   S
    C235   C330      1.37218      .   S
    C262   H285      0.93113      .   S
    C262   C331      1.37218      .   S
    C221   O97       1.26253      .   S
    C220   O96       1.26253      .   S
    C150   C244      1.38941      .   S
    C150   C200      1.38501  1_455   S
    C151   C245      1.38941      .   S
    C151   C201      1.38501  1_655   S
    C331   C354      1.37983      .   S
    C331   N308      1.44647      .   S
    C330   C353      1.37983      .   S
    C330   N307      1.44647      .   S
    C353   H376      0.92930      .   S
    C354   H377      0.92930      .   S
    N307   N308      1.21069      .   S
    C128   C201      1.50645      .   S
    C128   O31       1.26396      .   S
    C127   C200      1.50645      .   S
    C127   O30       1.26396      .   S
    C245   C359      1.39472      .   S
    C244   C358      1.39472      .   S
    O109   C230      1.26253      .   S
    O104   C228      1.26253      .   S
    C200   C266      1.37032      .   S
    C201   C267      1.37032      .   S
    O34    C131      1.26396      .   S
    O32    C129      1.26396      .   S
    O56    C228      1.24338      .   S
    O58    C230      1.24338      .   S
    C228   C247      1.47347      .   S
    C230   C249      1.47347      .   S
    C359   H183      0.92930      .   S
    C359   C336      1.37983      .   S
    C358   H182      0.92930      .   S
    C358   C335      1.37983      .   S
    C266   H289      0.93113      .   S
    C266   C335      1.37218  1_655   S
    C267   H290      0.93113      .   S
    C267   C336      1.37218  1_455   S
    O80    C129      1.26587      .   S
    O82    C131      1.26587      .   S
    H378   C361      0.92930      .   S
    H380   C363      0.92930      .   S
    C129   C202      1.50645      .   S
    C131   C204      1.50645      .   S
    C335   N312      1.44647      .   S
    C336   N313      1.44647      .   S
    H291   C268      0.93113      .   S
    H293   C270      0.93113      .   S
    C361   C247      1.39472      .   S
    C361   C338      1.37983      .   S
    C363   C249      1.39472      .   S
    C363   C340      1.37983      .   S
    C247   C153      1.38941      .   S
    C249   C155      1.38941      .   S
    C202   C268      1.37032      .   S
    C204   C270      1.37032      .   S
    N317   C340      1.44647      .   S
    N315   C338      1.44647      .   S
    C153   H176      0.93071      .   S
    C155   H178      0.93071      .   S
