# CIF file generated by openbabel 2.4.90, see http://openbabel.sf.net
data_I
_chemical_name_common ''
_cell_length_a 21.8827
_cell_length_b 21.8827
_cell_length_c 21.8827
_cell_angle_alpha 90
_cell_angle_beta 90
_cell_angle_gamma 90
_space_group_name_H-M_alt 'P 1'
_space_group_name_Hall 'P 1'
loop_
    _symmetry_equiv_pos_as_xyz
    x,y,z
loop_
    _atom_site_label
    _atom_site_type_symbol
    _atom_site_fract_x
    _atom_site_fract_y
    _atom_site_fract_z
    _atom_site_occupancy
    O0      O    0.20410   0.34985   0.66800   1.000
    O1      O    0.22500   0.62535   0.76490   1.000
    O2      O    0.24470   0.39254   0.75233   1.000
    O3      O    0.18810   0.67056   0.68180   1.000
    C4      C    0.22150   0.39510   0.69940   1.000
    C5      C    0.21700   0.51050   0.70440   1.000
    H6      H    0.22327   0.50853   0.74642   1.000
    C7      C    0.21550   0.45720   0.67030   1.000
    C8      C    0.20860   0.62490   0.71050   1.000
    C9      C    0.20920   0.56690   0.67630   1.000
    C10     C    0.20890   0.46020   0.60810   1.000
    H11     H    0.20765   0.42441   0.58511   1.000
    N12     N    0.20220   0.52380   0.51410   1.000
    C13     C    0.20410   0.51590   0.57970   1.000
    C14     C    0.20320   0.56950   0.61290   1.000
    H15     H    0.19864   0.60686   0.59323   1.000
    O16     O    0.24044   0.75956   0.75956   1.000
    Fe17    Fe   0.23949   0.69773   0.81804   1.000
    Fe18    Fe   0.76051   0.30227   0.81804   1.000
    Fe19    Fe   0.76051   0.69773   0.18196   1.000
    Fe20    Fe   0.23949   0.30227   0.18196   1.000
    Fe21    Fe   0.81804   0.23949   0.69773   1.000
    Fe22    Fe   0.81804   0.76051   0.30227   1.000
    Fe23    Fe   0.18196   0.76051   0.69773   1.000
    Fe24    Fe   0.18196   0.23949   0.30227   1.000
    Fe25    Fe   0.69773   0.81804   0.23949   1.000
    Fe26    Fe   0.30227   0.81804   0.76051   1.000
    Fe27    Fe   0.69773   0.18196   0.76051   1.000
    Fe28    Fe   0.30227   0.18196   0.23949   1.000
    Fe29    Fe   0.19773   0.73949   0.31804   1.000
    Fe30    Fe   0.80227   0.26051   0.31804   1.000
    Fe31    Fe   0.19773   0.26051   0.68196   1.000
    Fe32    Fe   0.80227   0.73949   0.68196   1.000
    Fe33    Fe   0.73949   0.31804   0.19773   1.000
    Fe34    Fe   0.26051   0.31804   0.80227   1.000
    Fe35    Fe   0.26051   0.68196   0.19773   1.000
    Fe36    Fe   0.73949   0.68196   0.80227   1.000
    Fe37    Fe   0.31804   0.19773   0.73949   1.000
    Fe38    Fe   0.31804   0.80227   0.26051   1.000
    Fe39    Fe   0.68196   0.19773   0.26051   1.000
    Fe40    Fe   0.68196   0.80227   0.73949   1.000
    O41     O    0.79590   0.65015   0.66800   1.000
    O42     O    0.79590   0.34985   0.33200   1.000
    O43     O    0.20410   0.65015   0.33200   1.000
    O44     O    0.66800   0.20410   0.34985   1.000
    O45     O    0.66800   0.79590   0.65015   1.000
    O46     O    0.33200   0.79590   0.34985   1.000
    O47     O    0.33200   0.20410   0.65015   1.000
    O48     O    0.34985   0.66800   0.20410   1.000
    O49     O    0.65015   0.66800   0.79590   1.000
    O50     O    0.34985   0.33200   0.79590   1.000
    O51     O    0.65015   0.33200   0.20410   1.000
    O52     O    0.84985   0.70410   0.16800   1.000
    O53     O    0.15015   0.29590   0.16800   1.000
    O54     O    0.84985   0.29590   0.83200   1.000
    O55     O    0.15015   0.70410   0.83200   1.000
    O56     O    0.70410   0.16800   0.84985   1.000
    O57     O    0.29590   0.16800   0.15015   1.000
    O58     O    0.29590   0.83200   0.84985   1.000
    O59     O    0.70410   0.83200   0.15015   1.000
    O60     O    0.16800   0.84985   0.70410   1.000
    O61     O    0.16800   0.15015   0.29590   1.000
    O62     O    0.83200   0.84985   0.29590   1.000
    O63     O    0.83200   0.15015   0.70410   1.000
    O64     O    0.77500   0.37465   0.76490   1.000
    O65     O    0.77500   0.62535   0.23510   1.000
    O66     O    0.22500   0.37465   0.23510   1.000
    O67     O    0.76490   0.22500   0.62535   1.000
    O68     O    0.76490   0.77500   0.37465   1.000
    O69     O    0.23510   0.77500   0.62535   1.000
    O70     O    0.23510   0.22500   0.37465   1.000
    O71     O    0.62535   0.76490   0.22500   1.000
    O72     O    0.37465   0.76490   0.77500   1.000
    O73     O    0.62535   0.23510   0.77500   1.000
    O74     O    0.37465   0.23510   0.22500   1.000
    O75     O    0.12535   0.72500   0.26490   1.000
    O76     O    0.87465   0.27500   0.26490   1.000
    O77     O    0.12535   0.27500   0.73510   1.000
    O78     O    0.87465   0.72500   0.73510   1.000
    O79     O    0.72500   0.26490   0.12535   1.000
    O80     O    0.27500   0.26490   0.87465   1.000
    O81     O    0.27500   0.73510   0.12535   1.000
    O82     O    0.72500   0.73510   0.87465   1.000
    O83     O    0.26490   0.12535   0.72500   1.000
    O84     O    0.26490   0.87465   0.27500   1.000
    O85     O    0.73510   0.12535   0.27500   1.000
    O86     O    0.73510   0.87465   0.72500   1.000
    O87     O    0.75530   0.60746   0.75233   1.000
    O88     O    0.75530   0.39254   0.24767   1.000
    O89     O    0.24470   0.60746   0.24767   1.000
    O90     O    0.75233   0.24470   0.39254   1.000
    O91     O    0.75233   0.75530   0.60746   1.000
    O92     O    0.24767   0.75530   0.39254   1.000
    O93     O    0.24767   0.24470   0.60746   1.000
    O94     O    0.39254   0.75233   0.24470   1.000
    O95     O    0.60746   0.75233   0.75530   1.000
    O96     O    0.39254   0.24767   0.75530   1.000
    O97     O    0.60746   0.24767   0.24470   1.000
    O98     O    0.89254   0.74470   0.25233   1.000
    H99     H    0.24642   0.00853   0.72327   1.000
    H100    H    0.24642   0.99147   0.27673   1.000
    O101    O    0.10746   0.25530   0.25233   1.000
    O102    O    0.89254   0.25530   0.74767   1.000
    O103    O    0.10746   0.74470   0.74767   1.000
    O104    O    0.74470   0.25233   0.89254   1.000
    O105    O    0.25530   0.25233   0.10746   1.000
    O106    O    0.25530   0.74767   0.89254   1.000
    O107    O    0.74470   0.74767   0.10746   1.000
    O108    O    0.25233   0.89254   0.74470   1.000
    O109    O    0.25233   0.10746   0.25530   1.000
    O110    O    0.74767   0.89254   0.25530   1.000
    O111    O    0.74767   0.10746   0.74470   1.000
    O112    O    0.81190   0.32944   0.68180   1.000
    O113    O    0.81190   0.67056   0.31820   1.000
    O114    O    0.18810   0.32944   0.31820   1.000
    O115    O    0.68180   0.18810   0.67056   1.000
    O116    O    0.68180   0.81190   0.32944   1.000
    O117    O    0.31820   0.81190   0.67056   1.000
    O118    O    0.31820   0.18810   0.32944   1.000
    O119    O    0.67056   0.68180   0.18810   1.000
    O120    O    0.32944   0.68180   0.81190   1.000
    O121    O    0.67056   0.31820   0.81190   1.000
    O122    O    0.32944   0.31820   0.18810   1.000
    O123    O    0.17056   0.68810   0.18180   1.000
    O124    O    0.82944   0.31190   0.18180   1.000
    O125    O    0.17056   0.31190   0.81820   1.000
    O126    O    0.82944   0.68810   0.81820   1.000
    O127    O    0.68810   0.18180   0.17056   1.000
    O128    O    0.31190   0.18180   0.82944   1.000
    C129    C    0.56690   0.32370   0.79080   1.000
    C130    C    0.43310   0.32370   0.20920   1.000
    C131    C    0.06690   0.70920   0.17630   1.000
    O132    O    0.31190   0.81820   0.17056   1.000
    O133    O    0.68810   0.81820   0.82944   1.000
    O134    O    0.18180   0.17056   0.68810   1.000
    O135    O    0.18180   0.82944   0.31190   1.000
    O136    O    0.81820   0.17056   0.31190   1.000
    O137    O    0.81820   0.82944   0.68810   1.000
    C138    C    0.77850   0.60490   0.69940   1.000
    C139    C    0.77850   0.39510   0.30060   1.000
    C140    C    0.22150   0.60490   0.30060   1.000
    C141    C    0.69940   0.22150   0.39510   1.000
    C142    C    0.69940   0.77850   0.60490   1.000
    C143    C    0.30060   0.77850   0.39510   1.000
    C144    C    0.30060   0.22150   0.60490   1.000
    C145    C    0.39510   0.69940   0.22150   1.000
    C146    C    0.60490   0.69940   0.77850   1.000
    C147    C    0.39510   0.30060   0.77850   1.000
    C148    C    0.60490   0.30060   0.22150   1.000
    C149    C    0.89510   0.72150   0.19940   1.000
    C150    C    0.10490   0.27850   0.19940   1.000
    C151    C    0.89510   0.27850   0.80060   1.000
    C152    C    0.10490   0.72150   0.80060   1.000
    C153    C    0.72150   0.19940   0.89510   1.000
    C154    C    0.27850   0.19940   0.10490   1.000
    C155    C    0.27850   0.80060   0.89510   1.000
    C156    C    0.72150   0.80060   0.10490   1.000
    C157    C    0.19940   0.89510   0.72150   1.000
    C158    C    0.19940   0.10490   0.27850   1.000
    C159    C    0.80060   0.89510   0.27850   1.000
    C160    C    0.80060   0.10490   0.72150   1.000
    C161    C    0.78300   0.48950   0.70440   1.000
    C162    C    0.78300   0.51050   0.29560   1.000
    C163    C    0.21700   0.48950   0.29560   1.000
    C164    C    0.70440   0.21700   0.51050   1.000
    C165    C    0.70440   0.78300   0.48950   1.000
    C166    C    0.29560   0.78300   0.51050   1.000
    C167    C    0.29560   0.21700   0.48950   1.000
    C168    C    0.51050   0.70440   0.21700   1.000
    C169    C    0.48950   0.70440   0.78300   1.000
    C170    C    0.51050   0.29560   0.78300   1.000
    C171    C    0.48950   0.29560   0.21700   1.000
    C172    C    0.01050   0.71700   0.20440   1.000
    C173    C    0.98950   0.28300   0.20440   1.000
    C174    C    0.01050   0.28300   0.79560   1.000
    C175    C    0.98950   0.71700   0.79560   1.000
    C176    C    0.71700   0.20440   0.01050   1.000
    C177    C    0.28300   0.20440   0.98950   1.000
    C178    C    0.28300   0.79560   0.01050   1.000
    C179    C    0.71700   0.79560   0.98950   1.000
    C180    C    0.20440   0.01050   0.71700   1.000
    C181    C    0.20440   0.98950   0.28300   1.000
    C182    C    0.79560   0.01050   0.28300   1.000
    C183    C    0.79560   0.98950   0.71700   1.000
    H184    H    0.77673   0.49147   0.74642   1.000
    H185    H    0.77673   0.50853   0.25358   1.000
    H186    H    0.22327   0.49147   0.25358   1.000
    H187    H    0.74642   0.22327   0.50853   1.000
    H188    H    0.74642   0.77673   0.49147   1.000
    H189    H    0.25358   0.77673   0.50853   1.000
    H190    H    0.25358   0.22327   0.49147   1.000
    H191    H    0.50853   0.74642   0.22327   1.000
    H192    H    0.49147   0.74642   0.77673   1.000
    H193    H    0.50853   0.25358   0.77673   1.000
    H194    H    0.49147   0.25358   0.22327   1.000
    H195    H    0.00853   0.72327   0.24642   1.000
    H196    H    0.99147   0.27673   0.24642   1.000
    H197    H    0.00853   0.27673   0.75358   1.000
    H198    H    0.99147   0.72327   0.75358   1.000
    H199    H    0.72327   0.24642   0.00853   1.000
    H200    H    0.27673   0.24642   0.99147   1.000
    H201    H    0.27673   0.75358   0.00853   1.000
    H202    H    0.72327   0.75358   0.99147   1.000
    H203    H    0.39314   0.40677   0.19864   1.000
    H204    H    0.10686   0.69864   0.09323   1.000
    H205    H    0.89314   0.30136   0.09323   1.000
    H206    H    0.10686   0.30136   0.90677   1.000
    H207    H    0.89314   0.69864   0.90677   1.000
    H208    H    0.69864   0.09323   0.10686   1.000
    H209    H    0.75358   0.00853   0.27673   1.000
    H210    H    0.75358   0.99147   0.72327   1.000
    C211    C    0.78450   0.54280   0.67030   1.000
    C212    C    0.78450   0.45720   0.32970   1.000
    C213    C    0.21550   0.54280   0.32970   1.000
    C214    C    0.67030   0.21550   0.45720   1.000
    C215    C    0.67030   0.78450   0.54280   1.000
    C216    C    0.32970   0.78450   0.45720   1.000
    C217    C    0.32970   0.21550   0.54280   1.000
    C218    C    0.45720   0.67030   0.21550   1.000
    C219    C    0.54280   0.67030   0.78450   1.000
    C220    C    0.45720   0.32970   0.78450   1.000
    C221    C    0.54280   0.32970   0.21550   1.000
    C222    C    0.95720   0.71550   0.17030   1.000
    C223    C    0.04280   0.28450   0.17030   1.000
    C224    C    0.95720   0.28450   0.82970   1.000
    C225    C    0.04280   0.71550   0.82970   1.000
    C226    C    0.71550   0.17030   0.95720   1.000
    C227    C    0.28450   0.17030   0.04280   1.000
    C228    C    0.28450   0.82970   0.95720   1.000
    C229    C    0.71550   0.82970   0.04280   1.000
    C230    C    0.17030   0.95720   0.71550   1.000
    C231    C    0.17030   0.04280   0.28450   1.000
    C232    C    0.82970   0.95720   0.28450   1.000
    C233    C    0.82970   0.04280   0.71550   1.000
    C234    C    0.56690   0.67630   0.20920   1.000
    C235    C    0.43310   0.67630   0.79080   1.000
    C236    C    0.79140   0.37510   0.71050   1.000
    C237    C    0.79140   0.62490   0.28950   1.000
    C238    C    0.20860   0.37510   0.28950   1.000
    C239    C    0.71050   0.20860   0.62490   1.000
    C240    C    0.71050   0.79140   0.37510   1.000
    C241    C    0.28950   0.79140   0.62490   1.000
    C242    C    0.28950   0.20860   0.37510   1.000
    C243    C    0.62490   0.71050   0.20860   1.000
    C244    C    0.37510   0.71050   0.79140   1.000
    C245    C    0.62490   0.28950   0.79140   1.000
    C246    C    0.37510   0.28950   0.20860   1.000
    C247    C    0.12490   0.70860   0.21050   1.000
    C248    C    0.87510   0.29140   0.21050   1.000
    C249    C    0.12490   0.29140   0.78950   1.000
    C250    C    0.87510   0.70860   0.78950   1.000
    C251    C    0.70860   0.21050   0.12490   1.000
    C252    C    0.29140   0.21050   0.87510   1.000
    C253    C    0.29140   0.78950   0.12490   1.000
    C254    C    0.70860   0.78950   0.87510   1.000
    C255    C    0.21050   0.12490   0.70860   1.000
    C256    C    0.21050   0.87510   0.29140   1.000
    C257    C    0.78950   0.12490   0.29140   1.000
    C258    C    0.78950   0.87510   0.70860   1.000
    C259    C    0.53980   0.60810   0.79110   1.000
    C260    C    0.79080   0.43310   0.67630   1.000
    C261    C    0.79080   0.56690   0.32370   1.000
    C262    C    0.20920   0.43310   0.32370   1.000
    C263    C    0.67630   0.20920   0.56690   1.000
    C264    C    0.67630   0.79080   0.43310   1.000
    C265    C    0.32370   0.79080   0.56690   1.000
    C266    C    0.32370   0.20920   0.43310   1.000
    C267    C    0.93310   0.29080   0.17630   1.000
    C268    C    0.06690   0.29080   0.82370   1.000
    C269    C    0.93310   0.70920   0.82370   1.000
    C270    C    0.70920   0.17630   0.06690   1.000
    C271    C    0.29080   0.17630   0.93310   1.000
    C272    C    0.29080   0.82370   0.06690   1.000
    C273    C    0.70920   0.82370   0.93310   1.000
    C274    C    0.17630   0.06690   0.70920   1.000
    C275    C    0.17630   0.93310   0.29080   1.000
    C276    C    0.82370   0.06690   0.29080   1.000
    C277    C    0.82370   0.93310   0.70920   1.000
    C278    C    0.79110   0.53980   0.60810   1.000
    C279    C    0.79110   0.46020   0.39190   1.000
    C280    C    0.20890   0.53980   0.39190   1.000
    C281    C    0.60810   0.20890   0.46020   1.000
    C282    C    0.60810   0.79110   0.53980   1.000
    C283    C    0.39190   0.79110   0.46020   1.000
    C284    C    0.39190   0.20890   0.53980   1.000
    C285    C    0.46020   0.60810   0.20890   1.000
    C286    C    0.46020   0.39190   0.79110   1.000
    C287    C    0.53980   0.39190   0.20890   1.000
    C288    C    0.96020   0.70890   0.10810   1.000
    C289    C    0.03980   0.29110   0.10810   1.000
    C290    C    0.96020   0.29110   0.89190   1.000
    C291    C    0.03980   0.70890   0.89190   1.000
    C292    C    0.70890   0.10810   0.96020   1.000
    C293    C    0.29110   0.10810   0.03980   1.000
    C294    C    0.29110   0.89190   0.96020   1.000
    C295    C    0.70890   0.89190   0.03980   1.000
    C296    C    0.10810   0.96020   0.70890   1.000
    C297    C    0.10810   0.03980   0.29110   1.000
    C298    C    0.89190   0.96020   0.29110   1.000
    C299    C    0.89190   0.03980   0.70890   1.000
    H300    H    0.79235   0.57559   0.58511   1.000
    H301    H    0.79235   0.42441   0.41489   1.000
    H302    H    0.20765   0.57559   0.41489   1.000
    H303    H    0.58511   0.20765   0.42441   1.000
    H304    H    0.58511   0.79235   0.57559   1.000
    H305    H    0.41489   0.79235   0.42441   1.000
    H306    H    0.41489   0.20765   0.57559   1.000
    H307    H    0.42441   0.58511   0.20765   1.000
    H308    H    0.57559   0.58511   0.79235   1.000
    H309    H    0.42441   0.41489   0.79235   1.000
    H310    H    0.57559   0.41489   0.20765   1.000
    H311    H    0.92441   0.70765   0.08511   1.000
    H312    H    0.07559   0.29235   0.08511   1.000
    H313    H    0.92441   0.29235   0.91489   1.000
    H314    H    0.07559   0.70765   0.91489   1.000
    H315    H    0.70765   0.08511   0.92441   1.000
    H316    H    0.29235   0.08511   0.07559   1.000
    H317    H    0.29235   0.91489   0.92441   1.000
    H318    H    0.70765   0.91489   0.07559   1.000
    H319    H    0.08511   0.92441   0.70765   1.000
    H320    H    0.08511   0.07559   0.29235   1.000
    H321    H    0.91489   0.92441   0.29235   1.000
    H322    H    0.91489   0.07559   0.70765   1.000
    N323    N    0.79780   0.47620   0.51410   1.000
    N324    N    0.79780   0.52380   0.48590   1.000
    N325    N    0.20220   0.47620   0.48590   1.000
    N326    N    0.51410   0.20220   0.52380   1.000
    N327    N    0.51410   0.79780   0.47620   1.000
    N328    N    0.48590   0.79780   0.52380   1.000
    N329    N    0.48590   0.20220   0.47620   1.000
    N330    N    0.52380   0.51410   0.20220   1.000
    N331    N    0.47620   0.51410   0.79780   1.000
    N332    N    0.52380   0.48590   0.79780   1.000
    N333    N    0.47620   0.48590   0.20220   1.000
    N334    N    0.02380   0.70220   0.01410   1.000
    N335    N    0.97620   0.29780   0.01410   1.000
    N336    N    0.02380   0.29780   0.98590   1.000
    N337    N    0.97620   0.70220   0.98590   1.000
    N338    N    0.70220   0.01410   0.02380   1.000
    N339    N    0.29780   0.01410   0.97620   1.000
    N340    N    0.29780   0.98590   0.02380   1.000
    N341    N    0.70220   0.98590   0.97620   1.000
    N342    N    0.01410   0.02380   0.70220   1.000
    N343    N    0.01410   0.97620   0.29780   1.000
    N344    N    0.98590   0.02380   0.29780   1.000
    N345    N    0.98590   0.97620   0.70220   1.000
    C346    C    0.79590   0.48410   0.57970   1.000
    C347    C    0.79590   0.51590   0.42030   1.000
    C348    C    0.20410   0.48410   0.42030   1.000
    C349    C    0.57970   0.20410   0.51590   1.000
    C350    C    0.57970   0.79590   0.48410   1.000
    C351    C    0.42030   0.79590   0.51590   1.000
    C352    C    0.42030   0.20410   0.48410   1.000
    C353    C    0.51590   0.57970   0.20410   1.000
    C354    C    0.48410   0.57970   0.79590   1.000
    C355    C    0.51590   0.42030   0.79590   1.000
    C356    C    0.48410   0.42030   0.20410   1.000
    C357    C    0.01590   0.70410   0.07970   1.000
    C358    C    0.98410   0.29590   0.07970   1.000
    C359    C    0.01590   0.29590   0.92030   1.000
    C360    C    0.98410   0.70410   0.92030   1.000
    C361    C    0.70410   0.07970   0.01590   1.000
    C362    C    0.29590   0.07970   0.98410   1.000
    C363    C    0.29590   0.92030   0.01590   1.000
    C364    C    0.70410   0.92030   0.98410   1.000
    C365    C    0.07970   0.01590   0.70410   1.000
    C366    C    0.07970   0.98410   0.29590   1.000
    C367    C    0.92030   0.01590   0.29590   1.000
    C368    C    0.92030   0.98410   0.70410   1.000
    C369    C    0.79680   0.43050   0.61290   1.000
    C370    C    0.79680   0.56950   0.38710   1.000
    C371    C    0.20320   0.43050   0.38710   1.000
    C372    C    0.61290   0.20320   0.56950   1.000
    C373    C    0.61290   0.79680   0.43050   1.000
    C374    C    0.38710   0.79680   0.56950   1.000
    C375    C    0.38710   0.20320   0.43050   1.000
    C376    C    0.56950   0.61290   0.20320   1.000
    C377    C    0.43050   0.61290   0.79680   1.000
    C378    C    0.56950   0.38710   0.79680   1.000
    C379    C    0.43050   0.38710   0.20320   1.000
    C380    C    0.06950   0.70320   0.11290   1.000
    C381    C    0.93050   0.29680   0.11290   1.000
    C382    C    0.06950   0.29680   0.88710   1.000
    C383    C    0.93050   0.70320   0.88710   1.000
    C384    C    0.70320   0.11290   0.06950   1.000
    C385    C    0.29680   0.11290   0.93050   1.000
    C386    C    0.29680   0.88710   0.06950   1.000
    C387    C    0.70320   0.88710   0.93050   1.000
    C388    C    0.11290   0.06950   0.70320   1.000
    C389    C    0.11290   0.93050   0.29680   1.000
    C390    C    0.88710   0.06950   0.29680   1.000
    C391    C    0.88710   0.93050   0.70320   1.000
    H392    H    0.80136   0.39314   0.59323   1.000
    H393    H    0.80136   0.60686   0.40677   1.000
    H394    H    0.19864   0.39314   0.40677   1.000
    H395    H    0.59323   0.19864   0.60686   1.000
    H396    H    0.59323   0.80136   0.39314   1.000
    H397    H    0.40677   0.80136   0.60686   1.000
    H398    H    0.40677   0.19864   0.39314   1.000
    H399    H    0.60686   0.59323   0.19864   1.000
    H400    H    0.39314   0.59323   0.80136   1.000
    H401    H    0.60686   0.40677   0.80136   1.000
    H402    H    0.30136   0.09323   0.89314   1.000
    H403    H    0.30136   0.90677   0.10686   1.000
    H404    H    0.69864   0.90677   0.89314   1.000
    H405    H    0.09323   0.10686   0.69864   1.000
    H406    H    0.09323   0.89314   0.30136   1.000
    H407    H    0.90677   0.10686   0.30136   1.000
    H408    H    0.90677   0.89314   0.69864   1.000
    O409    O    0.75956   0.24044   0.75956   1.000
    O410    O    0.75956   0.75956   0.24044   1.000
    O411    O    0.24044   0.24044   0.24044   1.000
    O412    O    0.25956   0.74044   0.25956   1.000
    O413    O    0.74044   0.25956   0.25956   1.000
    O414    O    0.25956   0.25956   0.74044   1.000
    O415    O    0.74044   0.74044   0.74044   1.000
loop_
    _geom_bond_atom_site_label_1
    _geom_bond_atom_site_label_2
    _geom_bond_distance
    _geom_bond_site_symmetry_2
    _ccdc_geom_bond_type
    H199   C176      0.93071      .   S
    H201   C178      0.93071      .   S
    C176   C270      1.38941      .   S
    C176   C226      1.38501  1_554   S
    C178   C272      1.38941      .   S
    C178   C228      1.38501  1_554   S
    N335   C358      1.44647      .   S
    N335   N336      1.21069  1_654   S
    N334   C357      1.44647      .   S
    N334   N337      1.21069  1_454   S
    C361   N338      1.44647      .   S
    C361   C384      1.37983      .   S
    C361   C292      1.37218  1_554   S
    C363   N340      1.44647      .   S
    C363   C386      1.37983      .   S
    C363   C294      1.37218  1_554   S
    N340   N339      1.21069  1_564   S
    N338   N341      1.21069  1_544   S
    C293   C227      1.37032      .   S
    C293   H316      0.93113      .   S
    C293   C362      1.37218  1_554   S
    C295   C229      1.37032      .   S
    C295   H318      0.93113      .   S
    C295   C364      1.37218  1_554   S
    C229   C156      1.50645      .   S
    C229   C179      1.38501  1_554   S
    C227   C154      1.50645      .   S
    C227   C177      1.38501  1_554   S
    C270   C384      1.39472      .   S
    C270   C251      1.47347      .   S
    C272   C386      1.39472      .   S
    C272   C253      1.47347      .   S
    C384   H208      0.92930      .   S
    C386   H403      0.92930      .   S
    C357   C288      1.37218  1_455   S
    C357   C380      1.37983      .   S
    C358   C289      1.37218  1_655   S
    C358   C381      1.37983      .   S
    H311   C288      0.93113      .   S
    H312   C289      0.93113      .   S
    H205   C381      0.92930      .   S
    H204   C380      0.92930      .   S
    C154   O105      1.26587      .   S
    C154   O57       1.26396      .   S
    C156   O107      1.26587      .   S
    C156   O59       1.26396      .   S
    O105   Fe20      1.99291      .   S
    O107   Fe19      1.99291      .   S
    C288   C222      1.37032      .   S
    C289   C223      1.37032      .   S
    C380   C131      1.39472      .   S
    C381   C267      1.39472      .   S
    C253   O81       1.24338      .   S
    C253   O132      1.26253      .   S
    C251   O79       1.24338      .   S
    C251   O127      1.26253      .   S
    O81    Fe35      1.99033      .   S
    O79    Fe33      1.99033      .   S
    O59    Fe25      1.98363      .   S
    O57    Fe28      1.98363      .   S
    O53    Fe20      1.98363      .   S
    O53    C150      1.26396      .   S
    O52    Fe19      1.98363      .   S
    O52    C149      1.26396      .   S
    C223   C150      1.50645      .   S
    C223   C173      1.38501  1_455   S
    C222   C149      1.50645      .   S
    C222   C172      1.38501  1_655   S
    O127   Fe39      2.00349      .   S
    O132   Fe38      2.00349      .   S
    C267   C173      1.38941      .   S
    C267   C248      1.47347      .   S
    C131   C172      1.38941      .   S
    C131   C247      1.47347      .   S
    O124   Fe33      2.00349      .   S
    O124   C248      1.26253      .   S
    O123   Fe35      2.00349      .   S
    O123   C247      1.26253      .   S
    Fe20   O122      2.00349      .   S
    Fe20   O66       1.99033      .   S
    Fe20   O411      1.86244      .   S
    Fe19   O119      2.00349      .   S
    Fe19   O65       1.99033      .   S
    O122   C246      1.26253      .   S
    O119   C243      1.26253      .   S
    Fe33   O51       1.98363      .   S
    Fe33   O88       1.99291      .   S
    Fe33   O413      1.86244      .   S
    Fe35   O48       1.98363      .   S
    Fe35   O89       1.99291      .   S
    Fe35   O412      1.86244      .   S
    H399   C376      0.92930      .   S
    H203   C379      0.92930      .   S
    C150   O101      1.26587      .   S
    C149   O98       1.26587      .   S
    N330   N333      1.21069      .   S
    N330   C353      1.44647      .   S
    N333   C356      1.44647      .   S
    C379   C356      1.37983      .   S
    C379   C130      1.39472      .   S
    C376   C353      1.37983      .   S
    C376   C234      1.39472      .   S
    O51    C148      1.26396      .   S
    O48    C145      1.26396      .   S
    C353   C285      1.37218      .   S
    C356   C287      1.37218      .   S
    C172   H195      0.93071      .   S
    C173   H196      0.93071      .   S
    H310   C287      0.93113      .   S
    H307   C285      0.93113      .   S
    C246   C130      1.47347      .   S
    C246   O74       1.24338      .   S
    C243   C234      1.47347      .   S
    C243   O71       1.24338      .   S
    C287   C221      1.37032      .   S
    C285   C218      1.37032      .   S
    C130   C171      1.38941      .   S
    C234   C168      1.38941      .   S
    C248   O76       1.24338      .   S
    C247   O75       1.24338      .   S
    C218   C168      1.38501      .   S
    C218   C145      1.50645      .   S
    C221   C171      1.38501      .   S
    C221   C148      1.50645      .   S
    C171   H194      0.93071      .   S
    C168   H191      0.93071      .   S
    C145   O94       1.26587      .   S
    C148   O97       1.26587      .   S
    O74    Fe28      1.99033      .   S
    O71    Fe25      1.99033      .   S
    O65    C237      1.24338      .   S
    O66    C238      1.24338      .   S
    Fe25   O410      1.86244      .   S
    Fe25   O110      1.99291      .   S
    Fe25   O116      2.00349      .   S
    Fe28   O109      1.99291      .   S
    Fe28   O118      2.00349      .   S
    O411   Fe24      1.86244      .   S
    O410   Fe22      1.86244      .   S
    O97    Fe39      1.99291      .   S
    O94    Fe38      1.99291      .   S
    O88    C139      1.26587      .   S
    O89    C140      1.26587      .   S
    O98    Fe22      1.99291      .   S
    O101   Fe24      1.99291      .   S
    H186   C163      0.93071      .   S
    H185   C162      0.93071      .   S
    O110   C159      1.26587      .   S
    O109   C158      1.26587      .   S
    O413   Fe39      1.86244      .   S
    O412   Fe29      1.86244      .   S
    Fe39   O85       1.99033      .   S
    Fe39   O44       1.98363      .   S
    Fe38   O84       1.99033      .   S
    Fe38   O46       1.98363      .   S
    O75    Fe29      1.99033      .   S
    O76    Fe30      1.99033      .   S
    O84    C256      1.24338      .   S
    O85    C257      1.24338      .   S
    H209   C182      0.93071      .   S
    H100   C181      0.93071      .   S
    C158   C231      1.50645      .   S
    C158   O61       1.26396      .   S
    C159   C232      1.50645      .   S
    C159   O62       1.26396      .   S
    C182   C232      1.38501  1_545   S
    C182   C276      1.38941      .   S
    C181   C231      1.38501  1_565   S
    C181   C275      1.38941      .   S
    C232   C298      1.37032      .   S
    C231   C297      1.37032      .   S
    C237   O113      1.26253      .   S
    C237   C261      1.47347      .   S
    C238   O114      1.26253      .   S
    C238   C262      1.47347      .   S
    C276   C257      1.47347      .   S
    C276   C390      1.39472      .   S
    C275   C256      1.47347      .   S
    C275   C389      1.39472      .   S
    C297   H320      0.93113      .   S
    C297   C366      1.37218  1_545   S
    C298   H321      0.93113      .   S
    C298   C367      1.37218  1_565   S
    C256   O135      1.26253      .   S
    C257   O136      1.26253      .   S
    C163   C262      1.38941      .   S
    C163   C213      1.38501      .   S
    C162   C261      1.38941      .   S
    C162   C212      1.38501      .   S
    O62    Fe22      1.98363      .   S
    O61    Fe24      1.98363      .   S
    C367   C390      1.37983      .   S
    C367   N344      1.44647      .   S
    C366   C389      1.37983      .   S
    C366   N343      1.44647      .   S
    C389   H406      0.92930      .   S
    C390   H407      0.92930      .   S
    N344   N343      1.21069  1_645   S
    C139   C212      1.50645      .   S
    C139   O42       1.26396      .   S
    C140   C213      1.50645      .   S
    C140   O43       1.26396      .   S
    Fe24   O114      2.00349      .   S
    Fe24   O70       1.99033      .   S
    Fe22   O113      2.00349      .   S
    Fe22   O68       1.99033      .   S
    O135   Fe29      2.00349      .   S
    O136   Fe30      2.00349      .   S
    Fe29   O43       1.98363      .   S
    Fe29   O92       1.99291      .   S
    Fe30   O42       1.98363      .   S
    Fe30   O90       1.99291      .   S
    C262   C371      1.39472      .   S
    C261   C370      1.39472      .   S
    O116   C240      1.26253      .   S
    O118   C242      1.26253      .   S
    C212   C279      1.37032      .   S
    C213   C280      1.37032      .   S
    O44    C141      1.26396      .   S
    O46    C143      1.26396      .   S
    O68    C240      1.24338      .   S
    O70    C242      1.24338      .   S
    C240   C264      1.47347      .   S
    C242   C266      1.47347      .   S
    C371   H394      0.92930      .   S
    C371   C348      1.37983      .   S
    C370   H393      0.92930      .   S
    C370   C347      1.37983      .   S
    C280   H302      0.93113      .   S
    C280   C348      1.37218      .   S
    C279   H301      0.93113      .   S
    C279   C347      1.37218      .   S
    O92    C143      1.26587      .   S
    O90    C141      1.26587      .   S
    H396   C373      0.92930      .   S
    H398   C375      0.92930      .   S
    C143   C216      1.50645      .   S
    C141   C214      1.50645      .   S
    C348   N325      1.44647      .   S
    C347   N324      1.44647      .   S
    H305   C283      0.93113      .   S
    H303   C281      0.93113      .   S
    C375   C266      1.39472      .   S
    C375   C352      1.37983      .   S
    C373   C264      1.39472      .   S
    C373   C350      1.37983      .   S
    C264   C165      1.38941      .   S
    C266   C167      1.38941      .   S
    C214   C281      1.37032      .   S
    C214   C164      1.38501      .   S
    C216   C283      1.37032      .   S
    C216   C166      1.38501      .   S
    C281   C349      1.37218      .   S
    C283   C351      1.37218      .   S
    N327   C350      1.44647      .   S
    N327   N328      1.21069      .   S
    N329   C352      1.44647      .   S
    N329   N326      1.21069      .   S
    C350   C282      1.37218      .   S
    C352   C284      1.37218      .   S
    N325   N12       1.21069      .   S
    N324   N323      1.21069      .   S
    C165   H188      0.93071      .   S
    C165   C215      1.38501      .   S
    C167   H190      0.93071      .   S
    C167   C217      1.38501      .   S
    H189   C166      0.93071      .   S
    H187   C164      0.93071      .   S
    C164   C263      1.38941      .   S
    C166   C265      1.38941      .   S
    N12    C13       1.44647      .   S
    N323   C346      1.44647      .   S
    C349   N326      1.44647      .   S
    C349   C372      1.37983      .   S
    C351   N328      1.44647      .   S
    C351   C374      1.37983      .   S
    C284   C217      1.37032      .   S
    C284   H306      0.93113      .   S
    C282   C215      1.37032      .   S
    C282   H304      0.93113      .   S
    C217   C144      1.50645      .   S
    C215   C142      1.50645      .   S
    C263   C372      1.39472      .   S
    C263   C239      1.47347      .   S
    C265   C374      1.39472      .   S
    C265   C241      1.47347      .   S
    C372   H395      0.92930      .   S
    C374   H397      0.92930      .   S
    C346   C278      1.37218      .   S
    C346   C369      1.37983      .   S
    C13    C10       1.37218      .   S
    C13    C14       1.37983      .   S
    H11    C10       0.93113      .   S
    H300   C278      0.93113      .   S
    H392   C369      0.92930      .   S
    H15    C14       0.92930      .   S
    C142   O91       1.26587      .   S
    C142   O45       1.26396      .   S
    C144   O93       1.26587      .   S
    C144   O47       1.26396      .   S
    O91    Fe32      1.99291      .   S
    O93    Fe31      1.99291      .   S
    C10    C7        1.37032      .   S
    C278   C211      1.37032      .   S
    C369   C260      1.39472      .   S
    C14    C9        1.39472      .   S
    C239   O67       1.24338      .   S
    C239   O115      1.26253      .   S
    C241   O69       1.24338      .   S
    C241   O117      1.26253      .   S
    O67    Fe21      1.99033      .   S
    O69    Fe23      1.99033      .   S
    O45    Fe40      1.98363      .   S
    O47    Fe37      1.98363      .   S
    O41    Fe32      1.98363      .   S
    O41    C138      1.26396      .   S
    O0     Fe31      1.98363      .   S
    O0     C4        1.26396      .   S
    C211   C138      1.50645      .   S
    C211   C161      1.38501      .   S
    C7     C4        1.50645      .   S
    C7     C5        1.38501      .   S
    O115   Fe27      2.00349      .   S
    O117   Fe26      2.00349      .   S
    C260   C161      1.38941      .   S
    C260   C236      1.47347      .   S
    C9     C5        1.38941      .   S
    C9     C8        1.47347      .   S
    O112   Fe21      2.00349      .   S
    O112   C236      1.26253      .   S
    O3     Fe23      2.00349      .   S
    O3     C8        1.26253      .   S
    Fe31   O134      2.00349      .   S
    Fe31   O77       1.99033      .   S
    Fe31   O414      1.86244      .   S
    Fe32   O137      2.00349      .   S
    Fe32   O78       1.99033      .   S
    O134   C255      1.26253      .   S
    O137   C258      1.26253      .   S
    Fe23   O60       1.98363      .   S
    Fe23   O103      1.99291      .   S
    Fe21   O63       1.98363      .   S
    Fe21   O102      1.99291      .   S
    H408   C391      0.92930      .   S
    H405   C388      0.92930      .   S
    C138   O87       1.26587      .   S
    C4     O2        1.26587      .   S
    N342   N345      1.21069  1_445   S
    N342   C365      1.44647      .   S
    N345   C368      1.44647      .   S
    C391   C368      1.37983      .   S
    C391   C277      1.39472      .   S
    C388   C365      1.37983      .   S
    C388   C274      1.39472      .   S
    C365   C296      1.37218  1_545   S
    O60    C157      1.26396      .   S
    O63    C160      1.26396      .   S
    C368   C299      1.37218  1_565   S
    C161   H184      0.93071      .   S
    C5     H6        0.93071      .   S
    H322   C299      0.93113      .   S
    H319   C296      0.93113      .   S
    C258   C277      1.47347      .   S
    C258   O86       1.24338      .   S
    C255   C274      1.47347      .   S
    C255   O83       1.24338      .   S
    C296   C230      1.37032      .   S
    C299   C233      1.37032      .   S
    C277   C183      1.38941      .   S
    C274   C180      1.38941      .   S
    C236   O64       1.24338      .   S
    C8     O1        1.24338      .   S
    C230   C180      1.38501  1_565   S
    C230   C157      1.50645      .   S
    C233   C183      1.38501  1_545   S
    C233   C160      1.50645      .   S
    C180   H99       0.93071      .   S
    C183   H210      0.93071      .   S
    C160   O111      1.26587      .   S
    C157   O108      1.26587      .   S
    O86    Fe40      1.99033      .   S
    O83    Fe37      1.99033      .   S
    O77    C249      1.24338      .   S
    O78    C250      1.24338      .   S
    Fe40   O415      1.86244      .   S
    Fe40   O95       1.99291      .   S
    Fe40   O133      2.00349      .   S
    Fe37   O96       1.99291      .   S
    Fe37   O128      2.00349      .   S
    O415   Fe36      1.86244      .   S
    O414   Fe34      1.86244      .   S
    O108   Fe26      1.99291      .   S
    O111   Fe27      1.99291      .   S
    O103   C152      1.26587      .   S
    O102   C151      1.26587      .   S
    O2     Fe34      1.99291      .   S
    O87    Fe36      1.99291      .   S
    H197   C174      0.93071      .   S
    H198   C175      0.93071      .   S
    O95    C146      1.26587      .   S
    O96    C147      1.26587      .   S
    O409   Fe27      1.86244      .   S
    O409   Fe18      1.86244      .   S
    O16    Fe26      1.86244      .   S
    O16    Fe17      1.86244      .   S
    Fe26   O72       1.99033      .   S
    Fe26   O58       1.98363      .   S
    Fe27   O73       1.99033      .   S
    Fe27   O56       1.98363      .   S
    O1     Fe17      1.99033      .   S
    O64    Fe18      1.99033      .   S
    O72    C244      1.24338      .   S
    O73    C245      1.24338      .   S
    H193   C170      0.93071      .   S
    H192   C169      0.93071      .   S
    C147   C220      1.50645      .   S
    C147   O50       1.26396      .   S
    C146   C219      1.50645      .   S
    C146   O49       1.26396      .   S
    C170   C220      1.38501      .   S
    C170   C129      1.38941      .   S
    C169   C219      1.38501      .   S
    C169   C235      1.38941      .   S
    C219   C259      1.37032      .   S
    C220   C286      1.37032      .   S
    C249   O125      1.26253      .   S
    C249   C268      1.47347      .   S
    C250   O126      1.26253      .   S
    C250   C269      1.47347      .   S
    C235   C244      1.47347      .   S
    C235   C377      1.39472      .   S
    C129   C245      1.47347      .   S
    C129   C378      1.39472      .   S
    C259   H308      0.93113      .   S
    C259   C354      1.37218      .   S
    C286   H309      0.93113      .   S
    C286   C355      1.37218      .   S
    C245   O121      1.26253      .   S
    C244   O120      1.26253      .   S
    C174   C268      1.38941      .   S
    C174   C224      1.38501  1_455   S
    C175   C269      1.38941      .   S
    C175   C225      1.38501  1_655   S
    C355   C378      1.37983      .   S
    C355   N332      1.44647      .   S
    C354   C377      1.37983      .   S
    C354   N331      1.44647      .   S
    O49    Fe36      1.98363      .   S
    O50    Fe34      1.98363      .   S
    C377   H400      0.92930      .   S
    C378   H401      0.92930      .   S
    N331   N332      1.21069      .   S
    C152   C225      1.50645      .   S
    C152   O55       1.26396      .   S
    C151   C224      1.50645      .   S
    C151   O54       1.26396      .   S
    Fe34   O125      2.00349      .   S
    Fe34   O80       1.99033      .   S
    Fe36   O126      2.00349      .   S
    Fe36   O82       1.99033      .   S
    O121   Fe18      2.00349      .   S
    O120   Fe17      2.00349      .   S
    Fe18   O54       1.98363      .   S
    Fe18   O104      1.99291      .   S
    Fe17   O55       1.98363      .   S
    Fe17   O106      1.99291      .   S
    C269   C383      1.39472      .   S
    C268   C382      1.39472      .   S
    O133   C254      1.26253      .   S
    O128   C252      1.26253      .   S
    C224   C290      1.37032      .   S
    C225   C291      1.37032      .   S
    O58    C155      1.26396      .   S
    O56    C153      1.26396      .   S
    O80    C252      1.24338      .   S
    O82    C254      1.24338      .   S
    C252   C271      1.47347      .   S
    C254   C273      1.47347      .   S
    C383   H207      0.92930      .   S
    C383   C360      1.37983      .   S
    C382   H206      0.92930      .   S
    C382   C359      1.37983      .   S
    C290   H313      0.93113      .   S
    C290   C359      1.37218  1_655   S
    C291   H314      0.93113      .   S
    C291   C360      1.37218  1_455   S
    O104   C153      1.26587      .   S
    O106   C155      1.26587      .   S
    H402   C385      0.92930      .   S
    H404   C387      0.92930      .   S
    C153   C226      1.50645      .   S
    C155   C228      1.50645      .   S
    C359   N336      1.44647      .   S
    C360   N337      1.44647      .   S
    H315   C292      0.93113      .   S
    H317   C294      0.93113      .   S
    C385   C271      1.39472      .   S
    C385   C362      1.37983      .   S
    C387   C273      1.39472      .   S
    C387   C364      1.37983      .   S
    C271   C177      1.38941      .   S
    C273   C179      1.38941      .   S
    C226   C292      1.37032      .   S
    C228   C294      1.37032      .   S
    N341   C364      1.44647      .   S
    N339   C362      1.44647      .   S
    C177   H200      0.93071      .   S
    C179   H202      0.93071      .   S
    O16    Fe23      1.86244      .   S
    O409   Fe21      1.86244      .   S
    O410   Fe19      1.86244      .   S
    O411   Fe28      1.86244      .   S
    O412   Fe38      1.86244      .   S
    O413   Fe30      1.86244      .   S
    O414   Fe37      1.86244      .   S
    O415   Fe32      1.86244      .   S
