# CIF file generated by openbabel 2.4.90, see http://openbabel.sf.net
data_I
_chemical_name_common ''
_cell_length_a 21.8827
_cell_length_b 21.8827
_cell_length_c 21.8827
_cell_angle_alpha 90
_cell_angle_beta 90
_cell_angle_gamma 90
_space_group_name_H-M_alt 'P 1'
_space_group_name_Hall 'P 1'
loop_
    _symmetry_equiv_pos_as_xyz
    x,y,z
loop_
    _atom_site_label
    _atom_site_type_symbol
    _atom_site_fract_x
    _atom_site_fract_y
    _atom_site_fract_z
    _atom_site_occupancy
    Fe0     Fe   0.23949   0.69773   0.81804   1.000
    Fe1     Fe   0.76051   0.30227   0.81804   1.000
    Fe2     Fe   0.76051   0.69773   0.18196   1.000
    Fe3     Fe   0.23949   0.30227   0.18196   1.000
    Fe4     Fe   0.81804   0.23949   0.69773   1.000
    Fe5     Fe   0.81804   0.76051   0.30227   1.000
    Fe6     Fe   0.18196   0.76051   0.69773   1.000
    Fe7     Fe   0.18196   0.23949   0.30227   1.000
    Fe8     Fe   0.69773   0.81804   0.23949   1.000
    Fe9     Fe   0.30227   0.81804   0.76051   1.000
    Fe10    Fe   0.69773   0.18196   0.76051   1.000
    Fe11    Fe   0.30227   0.18196   0.23949   1.000
    Fe12    Fe   0.19773   0.73949   0.31804   1.000
    Fe13    Fe   0.80227   0.26051   0.31804   1.000
    Fe14    Fe   0.19773   0.26051   0.68196   1.000
    Fe15    Fe   0.80227   0.73949   0.68196   1.000
    Fe16    Fe   0.73949   0.31804   0.19773   1.000
    Fe17    Fe   0.26051   0.31804   0.80227   1.000
    Fe18    Fe   0.26051   0.68196   0.19773   1.000
    Fe19    Fe   0.73949   0.68196   0.80227   1.000
    Fe20    Fe   0.31804   0.19773   0.73949   1.000
    Fe21    Fe   0.31804   0.80227   0.26051   1.000
    Fe22    Fe   0.68196   0.19773   0.26051   1.000
    Fe23    Fe   0.68196   0.80227   0.73949   1.000
