# CIF file generated by openbabel 2.4.90, see http://openbabel.sf.net
data_I
_chemical_name_common ''
_cell_length_a 21.8827
_cell_length_b 21.8827
_cell_length_c 21.8827
_cell_angle_alpha 90
_cell_angle_beta 90
_cell_angle_gamma 90
_space_group_name_H-M_alt 'P 1'
_space_group_name_Hall 'P 1'
loop_
    _symmetry_equiv_pos_as_xyz
    x,y,z
loop_
    _atom_site_label
    _atom_site_type_symbol
    _atom_site_fract_x
    _atom_site_fract_y
    _atom_site_fract_z
    _atom_site_occupancy
    Zr0     Zr   0.23949   0.69773   0.81804   1.000
    Zr1     Zr   0.76051   0.30227   0.81804   1.000
    Zr2     Zr   0.76051   0.69773   0.18196   1.000
    Zr3     Zr   0.23949   0.30227   0.18196   1.000
    Zr4     Zr   0.81804   0.23949   0.69773   1.000
    Zr5     Zr   0.81804   0.76051   0.30227   1.000
    Zr6     Zr   0.18196   0.76051   0.69773   1.000
    Zr7     Zr   0.18196   0.23949   0.30227   1.000
    Zr8     Zr   0.69773   0.81804   0.23949   1.000
    Zr9     Zr   0.30227   0.81804   0.76051   1.000
    Zr10    Zr   0.69773   0.18196   0.76051   1.000
    Zr11    Zr   0.30227   0.18196   0.23949   1.000
    Zr12    Zr   0.19773   0.73949   0.31804   1.000
    Zr13    Zr   0.80227   0.26051   0.31804   1.000
    Zr14    Zr   0.19773   0.26051   0.68196   1.000
    Zr15    Zr   0.80227   0.73949   0.68196   1.000
    Zr16    Zr   0.73949   0.31804   0.19773   1.000
    Zr17    Zr   0.26051   0.31804   0.80227   1.000
    Zr18    Zr   0.26051   0.68196   0.19773   1.000
    Zr19    Zr   0.73949   0.68196   0.80227   1.000
    Zr20    Zr   0.31804   0.19773   0.73949   1.000
    Zr21    Zr   0.31804   0.80227   0.26051   1.000
    Zr22    Zr   0.68196   0.19773   0.26051   1.000
    Zr23    Zr   0.68196   0.80227   0.73949   1.000
    N24     N    0.21135   0.50000   0.50000   1.000
    O25     O    0.20613   0.40259   0.58749   1.000
    O26     O    0.20613   0.59741   0.41251   1.000
    O27     O    0.19819   0.60777   0.59488   1.000
    O28     O    0.19819   0.39223   0.40512   1.000
    O29     O    0.22180   0.58077   0.64573   1.000
    O30     O    0.23198   0.42764   0.63865   1.000
    O31     O    0.23198   0.57235   0.36135   1.000
    O32     O    0.22180   0.41923   0.35426   1.000
    N33     N    0.28865   0.00000   0.00000   1.000
    O34     O    0.27820   0.85426   0.08077   1.000
    O35     O    0.30181   0.09488   0.89223   1.000
    O36     O    0.30181   0.90512   0.10777   1.000
    O37     O    0.26802   0.86135   0.92764   1.000
    O38     O    0.26802   0.13865   0.07236   1.000
    O39     O    0.27820   0.14573   0.91923   1.000
    O40     O    0.29387   0.91251   0.90259   1.000
    O41     O    0.29387   0.08749   0.09741   1.000
    N42     N    0.71135   0.00000   0.00000   1.000
    O43     O    0.69819   0.90512   0.89223   1.000
    O44     O    0.70613   0.91251   0.09741   1.000
    O45     O    0.73198   0.13865   0.92764   1.000
    O46     O    0.73198   0.86135   0.07236   1.000
    O47     O    0.69819   0.09488   0.10777   1.000
    O48     O    0.72180   0.85426   0.91923   1.000
    O49     O    0.70613   0.08749   0.90259   1.000
    O50     O    0.72180   0.14573   0.08077   1.000
    N51     N    0.50000   0.50000   0.78865   1.000
    O52     O    0.58077   0.35426   0.77820   1.000
    O53     O    0.42764   0.36135   0.76802   1.000
    O54     O    0.59741   0.58749   0.79387   1.000
    O55     O    0.39223   0.59488   0.80181   1.000
    O56     O    0.40259   0.41251   0.79387   1.000
    O57     O    0.57236   0.63865   0.76802   1.000
    O58     O    0.41923   0.64574   0.77820   1.000
    O59     O    0.60777   0.40512   0.80181   1.000
    N60     N    0.00000   0.71135   0.00000   1.000
    O61     O    0.08077   0.72180   0.14573   1.000
    O62     O    0.89223   0.69819   0.90512   1.000
    O63     O    0.10777   0.69819   0.09488   1.000
    O64     O    0.07235   0.73198   0.86135   1.000
    O65     O    0.90259   0.70613   0.08749   1.000
    O66     O    0.09741   0.70613   0.91251   1.000
    O67     O    0.91923   0.72180   0.85426   1.000
    O68     O    0.92764   0.73198   0.13865   1.000
    N69     N    0.50000   0.50000   0.21135   1.000
    O70     O    0.57235   0.36135   0.23198   1.000
    O71     O    0.42764   0.63865   0.23198   1.000
    O72     O    0.41923   0.35426   0.22180   1.000
    O73     O    0.39223   0.40512   0.19819   1.000
    O74     O    0.58077   0.64573   0.22180   1.000
    O75     O    0.59741   0.41251   0.20613   1.000
    O76     O    0.60777   0.59488   0.19819   1.000
    O77     O    0.40259   0.58749   0.20613   1.000
    N78     N    0.50000   0.21135   0.50000   1.000
    O79     O    0.35427   0.22180   0.41923   1.000
    O80     O    0.58749   0.20613   0.40259   1.000
    O81     O    0.64573   0.22180   0.58077   1.000
    O82     O    0.40512   0.19819   0.39223   1.000
    O83     O    0.41251   0.20613   0.59741   1.000
    O84     O    0.36135   0.23198   0.57235   1.000
    O85     O    0.63865   0.23198   0.42764   1.000
    O86     O    0.59488   0.19819   0.60777   1.000
    N87     N    0.75956   0.24044   0.75956   1.000
    O88     O    0.75980   0.25590   0.77418   1.000
    O89     O    0.77418   0.24020   0.74410   1.000
    O90     O    0.74410   0.22582   0.75980   1.000
    N91     N    0.78865   0.50000   0.50000   1.000
    O92     O    0.77820   0.58077   0.35426   1.000
    O93     O    0.80181   0.60777   0.40512   1.000
    O94     O    0.76802   0.42764   0.36135   1.000
    O95     O    0.80181   0.39223   0.59488   1.000
    O96     O    0.79387   0.40259   0.41251   1.000
    O97     O    0.77820   0.41923   0.64573   1.000
    O98     O    0.76802   0.57235   0.63865   1.000
    O99     O    0.79387   0.59741   0.58749   1.000
    N100    N    0.00000   0.00000   0.28865   1.000
    O101    O    0.86135   0.92764   0.26802   1.000
    O102    O    0.09488   0.89223   0.30181   1.000
    O103    O    0.85426   0.08077   0.27820   1.000
    O104    O    0.13865   0.07236   0.26802   1.000
    O105    O    0.14573   0.91923   0.27820   1.000
    O106    O    0.90512   0.10777   0.30181   1.000
    O107    O    0.91251   0.90259   0.29387   1.000
    O108    O    0.08749   0.09741   0.29387   1.000
    N109    N    0.00000   0.28865   0.00000   1.000
    O110    O    0.90259   0.29387   0.91251   1.000
    O111    O    0.09741   0.29387   0.08749   1.000
    O112    O    0.89223   0.30181   0.09488   1.000
    O113    O    0.10777   0.30181   0.90512   1.000
    O114    O    0.07235   0.26802   0.13865   1.000
    O115    O    0.92764   0.26802   0.86135   1.000
    O116    O    0.08077   0.27820   0.85426   1.000
    O117    O    0.91923   0.27820   0.14573   1.000
    N118    N    0.00000   0.00000   0.71135   1.000
    O119    O    0.86135   0.07235   0.73198   1.000
    O120    O    0.08749   0.90259   0.70613   1.000
    O121    O    0.09488   0.10777   0.69819   1.000
    O122    O    0.91251   0.09741   0.70613   1.000
    O123    O    0.14573   0.08077   0.72180   1.000
    O124    O    0.13865   0.92764   0.73198   1.000
    O125    O    0.90512   0.89223   0.69819   1.000
    O126    O    0.85426   0.91923   0.72180   1.000
    N127    N    0.50000   0.78865   0.50000   1.000
    O128    O    0.35426   0.77820   0.58077   1.000
    O129    O    0.63865   0.76802   0.57235   1.000
    O130    O    0.64573   0.77820   0.41923   1.000
    O131    O    0.41251   0.79387   0.40259   1.000
    O132    O    0.58749   0.79387   0.59741   1.000
    O133    O    0.36135   0.76802   0.42764   1.000
    O134    O    0.59488   0.80181   0.39223   1.000
    O135    O    0.40512   0.80181   0.60777   1.000
    N136    N    0.24044   0.24044   0.24044   1.000
    O137    O    0.24020   0.25590   0.22582   1.000
    O138    O    0.22582   0.24020   0.25590   1.000
    O139    O    0.25590   0.22582   0.24020   1.000
    N140    N    0.25956   0.25956   0.74044   1.000
    O141    O    0.25980   0.27418   0.75590   1.000
    O142    O    0.27418   0.24410   0.74020   1.000
    O143    O    0.24410   0.25980   0.72582   1.000
    N144    N    0.74044   0.25956   0.25956   1.000
    O145    O    0.74020   0.27418   0.24410   1.000
    O146    O    0.75590   0.25980   0.27418   1.000
    O147    O    0.72582   0.24410   0.25980   1.000
    N148    N    0.75956   0.75956   0.24044   1.000
    O149    O    0.75980   0.74410   0.22582   1.000
    O150    O    0.74410   0.77418   0.24020   1.000
    O151    O    0.77418   0.75980   0.25590   1.000
    N152    N    0.25956   0.74044   0.25956   1.000
    O153    O    0.25980   0.72582   0.24410   1.000
    O154    O    0.24410   0.74020   0.27418   1.000
    O155    O    0.27418   0.75590   0.25980   1.000
    N156    N    0.24044   0.75956   0.75956   1.000
    O157    O    0.25590   0.77418   0.75980   1.000
    O158    O    0.22582   0.75980   0.74410   1.000
    O159    O    0.24020   0.74410   0.77418   1.000
    N160    N    0.74044   0.74044   0.74044   1.000
    O161    O    0.72582   0.75590   0.74020   1.000
    O162    O    0.74020   0.72582   0.75590   1.000
    O163    O    0.75590   0.74020   0.72582   1.000
loop_
    _geom_bond_atom_site_label_1
    _geom_bond_atom_site_label_2
    _geom_bond_distance
    _geom_bond_site_symmetry_2
    _ccdc_geom_bond_type
    N24    O25       2.86742      .   S
    Zr14   O25       3.73816      .   S
    N24    O26       2.86742      .   S
    Zr12   O26       3.73816      .   S
    N24    O27       3.15519      .   S
    Zr6    O27       4.04513      .   S
    N24    O28       3.15519      .   S
    Zr7    O28       4.04513      .   S
    N24    O29       3.65327      .   S
    Zr0    O29       4.57352      .   S
    N24    O30       3.45196      .   S
    Zr17   O30       4.35453      .   S
    N24    O31       3.45196      .   S
    Zr18   O31       4.35453      .   S
    N24    O32       3.65327      .   S
    Zr3    O32       4.57352      .   S
    N33    O34       3.65327  1_545   S
    Zr18   O34       4.57352      .   S
    N33    O35       3.15519  1_554   S
    Zr20   O35       4.04513      .   S
    N33    O36       3.15519  1_545   S
    Zr21   O36       4.04513      .   S
    N33    O37       3.45196  1_544   S
    Zr0    O37       4.35453      .   S
    N33    O38       3.45196      .   S
    Zr3    O38       4.35453      .   S
    N33    O39       3.65327  1_554   S
    Zr17   O39       4.57352      .   S
    N33    O40       2.86742  1_544   S
    Zr9    O40       3.73816      .   S
    N33    O41       2.86742      .   S
    Zr11   O41       3.73816      .   S
    N42    O43       3.15519  1_544   S
    Zr23   O43       4.04513      .   S
    N42    O44       2.86742  1_545   S
    Zr8    O44       3.73816      .   S
    N42    O45       3.45196  1_554   S
    Zr1    O45       4.35453      .   S
    N42    O46       3.45196  1_545   S
    Zr2    O46       4.35453      .   S
    N42    O47       3.15519      .   S
    Zr22   O47       4.04513      .   S
    N42    O48       3.65327  1_544   S
    Zr19   O48       4.57352      .   S
    N42    O49       2.86742  1_554   S
    Zr10   O49       3.73816      .   S
    N42    O50       3.65327      .   S
    Zr16   O50       4.57352      .   S
    N51    O52       3.65327      .   S
    Zr10   O52       4.57352      .   S
    N51    O53       3.45196      .   S
    Zr20   O53       4.35453      .   S
    N51    O54       2.86742      .   S
    Zr19   O54       3.73816      .   S
    N51    O55       3.15519      .   S
    Zr0    O55       4.04513      .   S
    N51    O56       2.86742      .   S
    Zr17   O56       3.73816      .   S
    N51    O57       3.45196      .   S
    Zr23   O57       4.35453      .   S
    N51    O58       3.65327      .   S
    Zr9    O58       4.57352      .   S
    N51    O59       3.15519      .   S
    Zr1    O59       4.04513      .   S
    N60    O61       3.65327      .   S
    Zr12   O61       4.57352      .   S
    N60    O62       3.15519  1_454   S
    Zr19   O62       4.04513      .   S
    N60    O63       3.15519      .   S
    Zr18   O63       4.04513      .   S
    N60    O64       3.45196  1_554   S
    Zr6    O64       4.35453      .   S
    N60    O65       2.86742  1_455   S
    Zr2    O65       3.73816      .   S
    N60    O66       2.86742  1_554   S
    Zr0    O66       3.73816      .   S
    N60    O67       3.65327  1_454   S
    Zr15   O67       4.57352      .   S
    N60    O68       3.45196  1_455   S
    Zr5    O68       4.35453      .   S
    N69    O70       3.45196      .   S
    Zr22   O70       4.35453      .   S
    N69    O71       3.45196      .   S
    Zr21   O71       4.35453      .   S
    N69    O72       3.65327      .   S
    Zr11   O72       4.57352      .   S
    N69    O73       3.15519      .   S
    Zr3    O73       4.04513      .   S
    N69    O74       3.65327      .   S
    Zr8    O74       4.57352      .   S
    N69    O75       2.86742      .   S
    Zr16   O75       3.73816      .   S
    N69    O76       3.15519      .   S
    Zr2    O76       4.04513      .   S
    N69    O77       2.86742      .   S
    Zr18   O77       3.73816      .   S
    N78    O79       3.65327      .   S
    Zr7    O79       4.57352      .   S
    N78    O80       2.86742      .   S
    Zr22   O80       3.73816      .   S
    N78    O81       3.65327      .   S
    Zr4    O81       4.57352      .   S
    N78    O82       3.15519      .   S
    Zr11   O82       4.04513      .   S
    N78    O83       2.86742      .   S
    Zr20   O83       3.73816      .   S
    N78    O84       3.45196      .   S
    Zr14   O84       4.35453      .   S
    N78    O85       3.45196      .   S
    Zr13   O85       4.35453      .   S
    N78    O86       3.15519      .   S
    Zr10   O86       4.04513      .   S
    N87    O88       0.46561      .   S
    Zr1    O88       1.39683      .   S
    N87    O89       0.46561      .   S
    Zr4    O89       1.39683      .   S
    N87    O90       0.46561      .   S
    Zr10   O90       1.39683      .   S
    N91    O92       3.65327      .   S
    Zr2    O92       4.57352      .   S
    N91    O93       3.15519      .   S
    Zr5    O93       4.04513      .   S
    N91    O94       3.45196      .   S
    Zr16   O94       4.35453      .   S
    N91    O95       3.15519      .   S
    Zr4    O95       4.04513      .   S
    N91    O96       2.86742      .   S
    Zr13   O96       3.73816      .   S
    N91    O97       3.65327      .   S
    Zr1    O97       4.57352      .   S
    N91    O98       3.45196      .   S
    Zr19   O98       4.35453      .   S
    N91    O99       2.86742      .   S
    Zr15   O99       3.73816      .   S
    N100   O101      3.45196  1_445   S
    Zr8    O101      4.35453      .   S
    N100   O102      3.15519  1_545   S
    Zr12   O102      4.04513      .   S
    N100   O103      3.65327  1_455   S
    Zr22   O103      4.57352      .   S
    N100   O104      3.45196      .   S
    Zr11   O104      4.35453      .   S
    N100   O105      3.65327  1_545   S
    Zr21   O105      4.57352      .   S
    N100   O106      3.15519  1_455   S
    Zr13   O106      4.04513      .   S
    N100   O107      2.86742  1_445   S
    Zr5    O107      3.73816      .   S
    N100   O108      2.86742      .   S
    Zr7    O108      3.73816      .   S
    N109   O110      2.86742  1_454   S
    Zr1    O110      3.73816      .   S
    N109   O111      2.86742      .   S
    Zr3    O111      3.73816      .   S
    N109   O112      3.15519  1_455   S
    Zr16   O112      4.04513      .   S
    N109   O113      3.15519  1_554   S
    Zr17   O113      4.04513      .   S
    N109   O114      3.45196      .   S
    Zr7    O114      4.35453      .   S
    N109   O115      3.45196  1_454   S
    Zr4    O115      4.35453      .   S
    N109   O116      3.65327  1_554   S
    Zr14   O116      4.57352      .   S
    N109   O117      3.65327  1_455   S
    Zr13   O117      4.57352      .   S
    N118   O119      3.45196  1_455   S
    Zr10   O119      4.35453      .   S
    N118   O120      2.86742  1_545   S
    Zr6    O120      3.73816      .   S
    N118   O121      3.15519      .   S
    Zr14   O121      4.04513      .   S
    N118   O122      2.86742  1_455   S
    Zr4    O122      3.73816      .   S
    N118   O123      3.65327      .   S
    Zr20   O123      4.57352      .   S
    N118   O124      3.45196  1_545   S
    Zr9    O124      4.35453      .   S
    N118   O125      3.15519  1_445   S
    Zr15   O125      4.04513      .   S
    N118   O126      3.65327  1_445   S
    Zr23   O126      4.57352      .   S
    N127   O128      3.65327      .   S
    Zr6    O128      4.57352      .   S
    N127   O129      3.45196      .   S
    Zr15   O129      4.35453      .   S
    N127   O130      3.65327      .   S
    Zr5    O130      4.57352      .   S
    N127   O131      2.86742      .   S
    Zr21   O131      3.73816      .   S
    N127   O132      2.86742      .   S
    Zr23   O132      3.73816      .   S
    N127   O133      3.45196      .   S
    Zr12   O133      4.35453      .   S
    N127   O134      3.15519      .   S
    Zr8    O134      4.04513      .   S
    N127   O135      3.15519      .   S
    Zr9    O135      4.04513      .   S
    N136   O137      0.46561      .   S
    Zr3    O137      1.39683      .   S
    N136   O138      0.46561      .   S
    Zr7    O138      1.39683      .   S
    N136   O139      0.46561      .   S
    Zr11   O139      1.39683      .   S
    N140   O141      0.46561      .   S
    Zr17   O141      1.39683      .   S
    N140   O142      0.46561      .   S
    Zr20   O142      1.39683      .   S
    N140   O143      0.46561      .   S
    Zr14   O143      1.39683      .   S
    N144   O145      0.46561      .   S
    Zr16   O145      1.39683      .   S
    N144   O146      0.46561      .   S
    Zr13   O146      1.39683      .   S
    N144   O147      0.46561      .   S
    Zr22   O147      1.39683      .   S
    N148   O149      0.46561      .   S
    Zr2    O149      1.39683      .   S
    N148   O150      0.46561      .   S
    Zr8    O150      1.39683      .   S
    N148   O151      0.46561      .   S
    Zr5    O151      1.39683      .   S
    N152   O153      0.46561      .   S
    Zr18   O153      1.39683      .   S
    N152   O154      0.46561      .   S
    Zr12   O154      1.39683      .   S
    N152   O155      0.46561      .   S
    Zr21   O155      1.39683      .   S
    N156   O157      0.46561      .   S
    Zr9    O157      1.39683      .   S
    N156   O158      0.46561      .   S
    Zr6    O158      1.39683      .   S
    N156   O159      0.46561      .   S
    Zr0    O159      1.39683      .   S
    N160   O161      0.46561      .   S
    Zr23   O161      1.39683      .   S
    N160   O162      0.46561      .   S
    Zr19   O162      1.39683      .   S
    N160   O163      0.46561      .   S
    Zr15   O163      1.39683      .   S
