# CIF file generated by openbabel 2.4.90, see http://openbabel.sf.net
data_I
_chemical_name_common ''
_cell_length_a 21.8827
_cell_length_b 21.8827
_cell_length_c 21.8827
_cell_angle_alpha 90
_cell_angle_beta 90
_cell_angle_gamma 90
_space_group_name_H-M_alt 'P 1'
_space_group_name_Hall 'P 1'
loop_
    _symmetry_equiv_pos_as_xyz
    x,y,z
loop_
    _atom_site_label
    _atom_site_type_symbol
    _atom_site_fract_x
    _atom_site_fract_y
    _atom_site_fract_z
    _atom_site_occupancy
    Zr0     Zr   0.23949   0.69773   0.81804   1.000
    Zr1     Zr   0.76051   0.30227   0.81804   1.000
    Zr2     Zr   0.76051   0.69773   0.18196   1.000
    Zr3     Zr   0.23949   0.30227   0.18196   1.000
    Zr4     Zr   0.81804   0.23949   0.69773   1.000
    Zr5     Zr   0.81804   0.76051   0.30227   1.000
    Zr6     Zr   0.18196   0.76051   0.69773   1.000
    Zr7     Zr   0.18196   0.23949   0.30227   1.000
    Zr8     Zr   0.69773   0.81804   0.23949   1.000
    Zr9     Zr   0.30227   0.81804   0.76051   1.000
    Zr10    Zr   0.69773   0.18196   0.76051   1.000
    Zr11    Zr   0.30227   0.18196   0.23949   1.000
    Zr12    Zr   0.19773   0.73949   0.31804   1.000
    Zr13    Zr   0.80227   0.26051   0.31804   1.000
    Zr14    Zr   0.19773   0.26051   0.68196   1.000
    Zr15    Zr   0.80227   0.73949   0.68196   1.000
    Zr16    Zr   0.73949   0.31804   0.19773   1.000
    Zr17    Zr   0.26051   0.31804   0.80227   1.000
    Zr18    Zr   0.26051   0.68196   0.19773   1.000
    Zr19    Zr   0.73949   0.68196   0.80227   1.000
    Zr20    Zr   0.31804   0.19773   0.73949   1.000
    Zr21    Zr   0.31804   0.80227   0.26051   1.000
    Zr22    Zr   0.68196   0.19773   0.26051   1.000
    Zr23    Zr   0.68196   0.80227   0.73949   1.000
    N24     N    0.21135   0.50000   0.50000   1.000
    O25     O    0.20613   0.40259   0.58749   1.000
    O26     O    0.20613   0.59741   0.41251   1.000
    O27     O    0.19819   0.60777   0.59488   1.000
    O28     O    0.19819   0.39223   0.40512   1.000
    O29     O    0.22180   0.58077   0.64573   1.000
    O30     O    0.23198   0.42764   0.63865   1.000
    O31     O    0.23198   0.57235   0.36135   1.000
    O32     O    0.22180   0.41923   0.35426   1.000
    N33     N    0.28865   0.00000   0.00000   1.000
    O34     O    0.27820   0.85426   0.08077   1.000
    O35     O    0.30181   0.09488   0.89223   1.000
    O36     O    0.30181   0.90512   0.10777   1.000
    O37     O    0.26802   0.86135   0.92764   1.000
    O38     O    0.26802   0.13865   0.07236   1.000
    O39     O    0.27820   0.14573   0.91923   1.000
    O40     O    0.29387   0.91251   0.90259   1.000
    O41     O    0.29387   0.08749   0.09741   1.000
    N42     N    0.71135   0.00000   0.00000   1.000
    O43     O    0.69819   0.90512   0.89223   1.000
    O44     O    0.70613   0.91251   0.09741   1.000
    O45     O    0.73198   0.13865   0.92764   1.000
    O46     O    0.73198   0.86135   0.07236   1.000
    O47     O    0.69819   0.09488   0.10777   1.000
    O48     O    0.72180   0.85426   0.91923   1.000
    O49     O    0.70613   0.08749   0.90259   1.000
    O50     O    0.72180   0.14573   0.08077   1.000
    N51     N    0.50000   0.50000   0.78865   1.000
    O52     O    0.58077   0.35426   0.77820   1.000
    O53     O    0.42764   0.36135   0.76802   1.000
    O54     O    0.59741   0.58749   0.79387   1.000
    O55     O    0.39223   0.59488   0.80181   1.000
    O56     O    0.40259   0.41251   0.79387   1.000
    O57     O    0.57236   0.63865   0.76802   1.000
    O58     O    0.41923   0.64574   0.77820   1.000
    O59     O    0.60777   0.40512   0.80181   1.000
    N60     N    0.23820   0.62560   0.89020   1.000
    O61     O    0.23852   0.64363   0.87216   1.000
    N62     N    0.00000   0.71135   0.00000   1.000
    O63     O    0.08077   0.72180   0.14573   1.000
    O64     O    0.89223   0.69819   0.90512   1.000
    O65     O    0.10777   0.69819   0.09488   1.000
    O66     O    0.07235   0.73198   0.86135   1.000
    O67     O    0.90259   0.70613   0.08749   1.000
    O68     O    0.09741   0.70613   0.91251   1.000
    O69     O    0.91923   0.72180   0.85426   1.000
    O70     O    0.92764   0.73198   0.13865   1.000
    N71     N    0.50000   0.50000   0.21135   1.000
    O72     O    0.57235   0.36135   0.23198   1.000
    O73     O    0.42764   0.63865   0.23198   1.000
    O74     O    0.41923   0.35426   0.22180   1.000
    O75     O    0.39223   0.40512   0.19819   1.000
    O76     O    0.58077   0.64573   0.22180   1.000
    O77     O    0.59741   0.41251   0.20613   1.000
    O78     O    0.60777   0.59488   0.19819   1.000
    O79     O    0.40259   0.58749   0.20613   1.000
    N80     N    0.50000   0.21135   0.50000   1.000
    O81     O    0.35427   0.22180   0.41923   1.000
    O82     O    0.58749   0.20613   0.40259   1.000
    O83     O    0.64573   0.22180   0.58077   1.000
    O84     O    0.40512   0.19819   0.39223   1.000
    O85     O    0.41251   0.20613   0.59741   1.000
    O86     O    0.36135   0.23198   0.57235   1.000
    O87     O    0.63865   0.23198   0.42764   1.000
    O88     O    0.59488   0.19819   0.60777   1.000
    N89     N    0.75956   0.24044   0.75956   1.000
    O90     O    0.75980   0.25590   0.77418   1.000
    O91     O    0.77418   0.24020   0.74410   1.000
    O92     O    0.74410   0.22582   0.75980   1.000
    N93     N    0.78865   0.50000   0.50000   1.000
    O94     O    0.77820   0.58077   0.35426   1.000
    O95     O    0.80181   0.60777   0.40512   1.000
    O96     O    0.76802   0.42764   0.36135   1.000
    O97     O    0.80181   0.39223   0.59488   1.000
    O98     O    0.79387   0.40259   0.41251   1.000
    O99     O    0.77820   0.41923   0.64573   1.000
    O100    O    0.76802   0.57235   0.63865   1.000
    O101    O    0.79387   0.59741   0.58749   1.000
    N102    N    0.00000   0.00000   0.28865   1.000
    O103    O    0.86135   0.92764   0.26802   1.000
    O104    O    0.09488   0.89223   0.30181   1.000
    O105    O    0.85426   0.08077   0.27820   1.000
    O106    O    0.13865   0.07236   0.26802   1.000
    O107    O    0.14573   0.91923   0.27820   1.000
    O108    O    0.90512   0.10777   0.30181   1.000
    O109    O    0.91251   0.90259   0.29387   1.000
    O110    O    0.08749   0.09741   0.29387   1.000
    N111    N    0.00000   0.28865   0.00000   1.000
    O112    O    0.90259   0.29387   0.91251   1.000
    O113    O    0.09741   0.29387   0.08749   1.000
    O114    O    0.89223   0.30181   0.09488   1.000
    O115    O    0.10777   0.30181   0.90512   1.000
    O116    O    0.07235   0.26802   0.13865   1.000
    O117    O    0.92764   0.26802   0.86135   1.000
    O118    O    0.08077   0.27820   0.85426   1.000
    O119    O    0.91923   0.27820   0.14573   1.000
    N120    N    0.00000   0.00000   0.71135   1.000
    O121    O    0.86135   0.07235   0.73198   1.000
    O122    O    0.08749   0.90259   0.70613   1.000
    O123    O    0.09488   0.10777   0.69819   1.000
    O124    O    0.91251   0.09741   0.70613   1.000
    O125    O    0.14573   0.08077   0.72180   1.000
    O126    O    0.13865   0.92764   0.73198   1.000
    O127    O    0.90512   0.89223   0.69819   1.000
    O128    O    0.85426   0.91923   0.72180   1.000
    N129    N    0.12560   0.26180   0.60980   1.000
    O130    O    0.14363   0.26148   0.62784   1.000
    N131    N    0.50000   0.78865   0.50000   1.000
    O132    O    0.35426   0.77820   0.58077   1.000
    O133    O    0.63865   0.76802   0.57235   1.000
    O134    O    0.64573   0.77820   0.41923   1.000
    O135    O    0.41251   0.79387   0.40259   1.000
    O136    O    0.58749   0.79387   0.59741   1.000
    O137    O    0.36135   0.76802   0.42764   1.000
    O138    O    0.59488   0.80181   0.39223   1.000
    O139    O    0.40512   0.80181   0.60777   1.000
    N140    N    0.24044   0.24044   0.24044   1.000
    O141    O    0.24020   0.25590   0.22582   1.000
    O142    O    0.22582   0.24020   0.25590   1.000
    O143    O    0.25590   0.22582   0.24020   1.000
    N144    N    0.25956   0.25956   0.74044   1.000
    O145    O    0.25980   0.27418   0.75590   1.000
    O146    O    0.27418   0.24410   0.74020   1.000
    O147    O    0.24410   0.25980   0.72582   1.000
    N148    N    0.62560   0.10980   0.76180   1.000
    O149    O    0.64363   0.12784   0.76148   1.000
    N150    N    0.74044   0.25956   0.25956   1.000
    O151    O    0.74020   0.27418   0.24410   1.000
    O152    O    0.75590   0.25980   0.27418   1.000
    O153    O    0.72582   0.24410   0.25980   1.000
    N154    N    0.10980   0.23820   0.37440   1.000
    O155    O    0.12784   0.23852   0.35637   1.000
    N156    N    0.75956   0.75956   0.24044   1.000
    O157    O    0.75980   0.74410   0.22582   1.000
    O158    O    0.74410   0.77418   0.24020   1.000
    O159    O    0.77418   0.75980   0.25590   1.000
    N160    N    0.60980   0.12560   0.26180   1.000
    O161    O    0.62784   0.14363   0.26148   1.000
    N162    N    0.76180   0.62560   0.10980   1.000
    O163    O    0.76148   0.64363   0.12784   1.000
    N164    N    0.26180   0.60980   0.12560   1.000
    O165    O    0.26148   0.62784   0.14363   1.000
    N166    N    0.87440   0.26180   0.39020   1.000
    O167    O    0.85637   0.26148   0.37216   1.000
    N168    N    0.10980   0.76180   0.62560   1.000
    O169    O    0.12784   0.76148   0.64363   1.000
    N170    N    0.23820   0.37440   0.10980   1.000
    O171    O    0.23852   0.35637   0.12784   1.000
    N172    N    0.89020   0.23820   0.62560   1.000
    O173    O    0.87216   0.23852   0.64363   1.000
    N174    N    0.89020   0.76180   0.37440   1.000
    O175    O    0.87216   0.76148   0.35637   1.000
    N176    N    0.39020   0.87440   0.26180   1.000
    O177    O    0.37216   0.85637   0.26148   1.000
    N178    N    0.39020   0.12560   0.73820   1.000
    O179    O    0.37216   0.14363   0.73852   1.000
    N180    N    0.26180   0.39020   0.87440   1.000
    O181    O    0.26148   0.37216   0.85637   1.000
    N182    N    0.73820   0.39020   0.12560   1.000
    O183    O    0.73852   0.37216   0.14363   1.000
    N184    N    0.25956   0.74044   0.25956   1.000
    O185    O    0.25980   0.72582   0.24410   1.000
    O186    O    0.24410   0.74020   0.27418   1.000
    O187    O    0.27418   0.75590   0.25980   1.000
    N188    N    0.62560   0.89020   0.23820   1.000
    O189    O    0.64363   0.87216   0.23852   1.000
    N190    N    0.12560   0.73820   0.39020   1.000
    O191    O    0.14363   0.73852   0.37216   1.000
    N192    N    0.60980   0.87440   0.73820   1.000
    O193    O    0.62784   0.85637   0.73852   1.000
    N194    N    0.87440   0.73820   0.60980   1.000
    O195    O    0.85637   0.73852   0.62784   1.000
    N196    N    0.76180   0.37440   0.89020   1.000
    O197    O    0.76148   0.35637   0.87216   1.000
    N198    N    0.73820   0.60980   0.87440   1.000
    O199    O    0.73852   0.62784   0.85637   1.000
    N200    N    0.37440   0.89020   0.76180   1.000
    O201    O    0.35637   0.87216   0.76148   1.000
    N202    N    0.24044   0.75956   0.75956   1.000
    O203    O    0.25590   0.77418   0.75980   1.000
    O204    O    0.22582   0.75980   0.74410   1.000
    O205    O    0.24020   0.74410   0.77418   1.000
    N206    N    0.74044   0.74044   0.74044   1.000
    O207    O    0.72582   0.75590   0.74020   1.000
    O208    O    0.74020   0.72582   0.75590   1.000
    O209    O    0.75590   0.74020   0.72582   1.000
    N210    N    0.37440   0.10980   0.23820   1.000
    O211    O    0.35637   0.12784   0.23852   1.000
loop_
    _geom_bond_atom_site_label_1
    _geom_bond_atom_site_label_2
    _geom_bond_distance
    _geom_bond_site_symmetry_2
    _ccdc_geom_bond_type
    N24    O25       2.86742      .   S
    Zr14   O25       3.73816      .   S
    N24    O26       2.86742      .   S
    Zr12   O26       3.73816      .   S
    N24    O27       3.15519      .   S
    Zr6    O27       4.04513      .   S
    N24    O28       3.15519      .   S
    Zr7    O28       4.04513      .   S
    N24    O29       3.65327      .   S
    Zr0    O29       4.57352      .   S
    N24    O30       3.45196      .   S
    Zr17   O30       4.35453      .   S
    N24    O31       3.45196      .   S
    Zr18   O31       4.35453      .   S
    N24    O32       3.65327      .   S
    Zr3    O32       4.57352      .   S
    N33    O34       3.65327  1_545   S
    Zr18   O34       4.57352      .   S
    N33    O35       3.15519  1_554   S
    Zr20   O35       4.04513      .   S
    N33    O36       3.15519  1_545   S
    Zr21   O36       4.04513      .   S
    N33    O37       3.45196  1_544   S
    Zr0    O37       4.35453      .   S
    N33    O38       3.45196      .   S
    Zr3    O38       4.35453      .   S
    N33    O39       3.65327  1_554   S
    Zr17   O39       4.57352      .   S
    N33    O40       2.86742  1_544   S
    Zr9    O40       3.73816      .   S
    N33    O41       2.86742      .   S
    Zr11   O41       3.73816      .   S
    N42    O43       3.15519  1_544   S
    Zr23   O43       4.04513      .   S
    N42    O44       2.86742  1_545   S
    Zr8    O44       3.73816      .   S
    N42    O45       3.45196  1_554   S
    Zr1    O45       4.35453      .   S
    N42    O46       3.45196  1_545   S
    Zr2    O46       4.35453      .   S
    N42    O47       3.15519      .   S
    Zr22   O47       4.04513      .   S
    N42    O48       3.65327  1_544   S
    Zr19   O48       4.57352      .   S
    N42    O49       2.86742  1_554   S
    Zr10   O49       3.73816      .   S
    N42    O50       3.65327      .   S
    Zr16   O50       4.57352      .   S
    N51    O52       3.65327      .   S
    Zr10   O52       4.57352      .   S
    N51    O53       3.45196      .   S
    Zr20   O53       4.35453      .   S
    N51    O54       2.86742      .   S
    Zr19   O54       3.73816      .   S
    N51    O55       3.15519      .   S
    Zr0    O55       4.04513      .   S
    N51    O56       2.86742      .   S
    Zr17   O56       3.73816      .   S
    N51    O57       3.45196      .   S
    Zr23   O57       4.35453      .   S
    N51    O58       3.65327      .   S
    Zr9    O58       4.57352      .   S
    N51    O59       3.15519      .   S
    Zr1    O59       4.04513      .   S
    N60    O61       0.55821      .   S
    Zr0    O61       1.67463      .   S
    N62    O63       3.65327      .   S
    Zr12   O63       4.57352      .   S
    N62    O64       3.15519  1_454   S
    Zr19   O64       4.04513      .   S
    N62    O65       3.15519      .   S
    Zr18   O65       4.04513      .   S
    N62    O66       3.45196  1_554   S
    Zr6    O66       4.35453      .   S
    N62    O67       2.86742  1_455   S
    Zr2    O67       3.73816      .   S
    N62    O68       2.86742  1_554   S
    Zr0    O68       3.73816      .   S
    N62    O69       3.65327  1_454   S
    Zr15   O69       4.57352      .   S
    N62    O70       3.45196  1_455   S
    Zr5    O70       4.35453      .   S
    N71    O72       3.45196      .   S
    Zr22   O72       4.35453      .   S
    N71    O73       3.45196      .   S
    Zr21   O73       4.35453      .   S
    N71    O74       3.65327      .   S
    Zr11   O74       4.57352      .   S
    N71    O75       3.15519      .   S
    Zr3    O75       4.04513      .   S
    N71    O76       3.65327      .   S
    Zr8    O76       4.57352      .   S
    N71    O77       2.86742      .   S
    Zr16   O77       3.73816      .   S
    N71    O78       3.15519      .   S
    Zr2    O78       4.04513      .   S
    N71    O79       2.86742      .   S
    Zr18   O79       3.73816      .   S
    N80    O81       3.65327      .   S
    Zr7    O81       4.57352      .   S
    N80    O82       2.86742      .   S
    Zr22   O82       3.73816      .   S
    N80    O83       3.65327      .   S
    Zr4    O83       4.57352      .   S
    N80    O84       3.15519      .   S
    Zr11   O84       4.04513      .   S
    N80    O85       2.86742      .   S
    Zr20   O85       3.73816      .   S
    N80    O86       3.45196      .   S
    Zr14   O86       4.35453      .   S
    N80    O87       3.45196      .   S
    Zr13   O87       4.35453      .   S
    N80    O88       3.15519      .   S
    Zr10   O88       4.04513      .   S
    N89    O90       0.46561      .   S
    Zr1    O90       1.39683      .   S
    N89    O91       0.46561      .   S
    Zr4    O91       1.39683      .   S
    N89    O92       0.46561      .   S
    Zr10   O92       1.39683      .   S
    N93    O94       3.65327      .   S
    Zr2    O94       4.57352      .   S
    N93    O95       3.15519      .   S
    Zr5    O95       4.04513      .   S
    N93    O96       3.45196      .   S
    Zr16   O96       4.35453      .   S
    N93    O97       3.15519      .   S
    Zr4    O97       4.04513      .   S
    N93    O98       2.86742      .   S
    Zr13   O98       3.73816      .   S
    N93    O99       3.65327      .   S
    Zr1    O99       4.57352      .   S
    N93    O100      3.45196      .   S
    Zr19   O100      4.35453      .   S
    N93    O101      2.86742      .   S
    Zr15   O101      3.73816      .   S
    N102   O103      3.45196  1_445   S
    Zr8    O103      4.35453      .   S
    N102   O104      3.15519  1_545   S
    Zr12   O104      4.04513      .   S
    N102   O105      3.65327  1_455   S
    Zr22   O105      4.57352      .   S
    N102   O106      3.45196      .   S
    Zr11   O106      4.35453      .   S
    N102   O107      3.65327  1_545   S
    Zr21   O107      4.57352      .   S
    N102   O108      3.15519  1_455   S
    Zr13   O108      4.04513      .   S
    N102   O109      2.86742  1_445   S
    Zr5    O109      3.73816      .   S
    N102   O110      2.86742      .   S
    Zr7    O110      3.73816      .   S
    N111   O112      2.86742  1_454   S
    Zr1    O112      3.73816      .   S
    N111   O113      2.86742      .   S
    Zr3    O113      3.73816      .   S
    N111   O114      3.15519  1_455   S
    Zr16   O114      4.04513      .   S
    N111   O115      3.15519  1_554   S
    Zr17   O115      4.04513      .   S
    N111   O116      3.45196      .   S
    Zr7    O116      4.35453      .   S
    N111   O117      3.45196  1_454   S
    Zr4    O117      4.35453      .   S
    N111   O118      3.65327  1_554   S
    Zr14   O118      4.57352      .   S
    N111   O119      3.65327  1_455   S
    Zr13   O119      4.57352      .   S
    N120   O121      3.45196  1_455   S
    Zr10   O121      4.35453      .   S
    N120   O122      2.86742  1_545   S
    Zr6    O122      3.73816      .   S
    N120   O123      3.15519      .   S
    Zr14   O123      4.04513      .   S
    N120   O124      2.86742  1_455   S
    Zr4    O124      3.73816      .   S
    N120   O125      3.65327      .   S
    Zr20   O125      4.57352      .   S
    N120   O126      3.45196  1_545   S
    Zr9    O126      4.35453      .   S
    N120   O127      3.15519  1_445   S
    Zr15   O127      4.04513      .   S
    N120   O128      3.65327  1_445   S
    Zr23   O128      4.57352      .   S
    N129   O130      0.55821      .   S
    Zr14   O130      1.67463      .   S
    N131   O132      3.65327      .   S
    Zr6    O132      4.57352      .   S
    N131   O133      3.45196      .   S
    Zr15   O133      4.35453      .   S
    N131   O134      3.65327      .   S
    Zr5    O134      4.57352      .   S
    N131   O135      2.86742      .   S
    Zr21   O135      3.73816      .   S
    N131   O136      2.86742      .   S
    Zr23   O136      3.73816      .   S
    N131   O137      3.45196      .   S
    Zr12   O137      4.35453      .   S
    N131   O138      3.15519      .   S
    Zr8    O138      4.04513      .   S
    N131   O139      3.15519      .   S
    Zr9    O139      4.04513      .   S
    N140   O141      0.46561      .   S
    Zr3    O141      1.39683      .   S
    N140   O142      0.46561      .   S
    Zr7    O142      1.39683      .   S
    N140   O143      0.46561      .   S
    Zr11   O143      1.39683      .   S
    N144   O145      0.46561      .   S
    Zr17   O145      1.39683      .   S
    N144   O146      0.46561      .   S
    Zr20   O146      1.39683      .   S
    N144   O147      0.46561      .   S
    Zr14   O147      1.39683      .   S
    N148   O149      0.55821      .   S
    Zr10   O149      1.67463      .   S
    N150   O151      0.46561      .   S
    Zr16   O151      1.39683      .   S
    N150   O152      0.46561      .   S
    Zr13   O152      1.39683      .   S
    N150   O153      0.46561      .   S
    Zr22   O153      1.39683      .   S
    N154   O155      0.55821      .   S
    Zr7    O155      1.67463      .   S
    N156   O157      0.46561      .   S
    Zr2    O157      1.39683      .   S
    N156   O158      0.46561      .   S
    Zr8    O158      1.39683      .   S
    N156   O159      0.46561      .   S
    Zr5    O159      1.39683      .   S
    N160   O161      0.55821      .   S
    Zr22   O161      1.67463      .   S
    N162   O163      0.55821      .   S
    Zr2    O163      1.67463      .   S
    N164   O165      0.55821      .   S
    Zr18   O165      1.67463      .   S
    N166   O167      0.55821      .   S
    Zr13   O167      1.67463      .   S
    N168   O169      0.55821      .   S
    Zr6    O169      1.67463      .   S
    N170   O171      0.55821      .   S
    Zr3    O171      1.67463      .   S
    N172   O173      0.55821      .   S
    Zr4    O173      1.67463      .   S
    N174   O175      0.55821      .   S
    Zr5    O175      1.67463      .   S
    N176   O177      0.55821      .   S
    Zr21   O177      1.67463      .   S
    N178   O179      0.55821      .   S
    Zr20   O179      1.67463      .   S
    N180   O181      0.55821      .   S
    Zr17   O181      1.67463      .   S
    N182   O183      0.55821      .   S
    Zr16   O183      1.67463      .   S
    N184   O185      0.46561      .   S
    Zr18   O185      1.39683      .   S
    N184   O186      0.46561      .   S
    Zr12   O186      1.39683      .   S
    N184   O187      0.46561      .   S
    Zr21   O187      1.39683      .   S
    N188   O189      0.55821      .   S
    Zr8    O189      1.67463      .   S
    N190   O191      0.55821      .   S
    Zr12   O191      1.67463      .   S
    N192   O193      0.55821      .   S
    Zr23   O193      1.67463      .   S
    N194   O195      0.55821      .   S
    Zr15   O195      1.67463      .   S
    N196   O197      0.55821      .   S
    Zr1    O197      1.67463      .   S
    N198   O199      0.55821      .   S
    Zr19   O199      1.67463      .   S
    N200   O201      0.55821      .   S
    Zr9    O201      1.67463      .   S
    N202   O203      0.46561      .   S
    Zr9    O203      1.39683      .   S
    N202   O204      0.46561      .   S
    Zr6    O204      1.39683      .   S
    N202   O205      0.46561      .   S
    Zr0    O205      1.39683      .   S
    N206   O207      0.46561      .   S
    Zr23   O207      1.39683      .   S
    N206   O208      0.46561      .   S
    Zr19   O208      1.39683      .   S
    N206   O209      0.46561      .   S
    Zr15   O209      1.39683      .   S
    N210   O211      0.55821      .   S
    Zr11   O211      1.67463      .   S
