# CIF file generated by openbabel 2.4.90, see http://openbabel.sf.net
data_I
_chemical_name_common ''
_cell_length_a 21.8827
_cell_length_b 21.8827
_cell_length_c 21.8827
_cell_angle_alpha 90
_cell_angle_beta 90
_cell_angle_gamma 90
_space_group_name_H-M_alt 'P 1'
_space_group_name_Hall 'P 1'
loop_
    _symmetry_equiv_pos_as_xyz
    x,y,z
loop_
    _atom_site_label
    _atom_site_type_symbol
    _atom_site_fract_x
    _atom_site_fract_y
    _atom_site_fract_z
    _atom_site_occupancy
    C0      C    0.21700   0.51050   0.70440   1.000
    H1      H    0.22327   0.50853   0.74642   1.000
    C2      C    0.21550   0.45720   0.67030   1.000
    C3      C    0.20920   0.56690   0.67630   1.000
    C4      C    0.20890   0.46020   0.60810   1.000
    H5      H    0.20765   0.42441   0.58511   1.000
    N6      N    0.20220   0.52380   0.51410   1.000
    C7      C    0.20410   0.51590   0.57970   1.000
    C8      C    0.20320   0.56950   0.61290   1.000
    H9      H    0.19864   0.60686   0.59323   1.000
    H10     H    0.24642   0.00853   0.72327   1.000
    H11     H    0.24642   0.99147   0.27673   1.000
    C12     C    0.56690   0.32370   0.79080   1.000
    C13     C    0.43310   0.32370   0.20920   1.000
    C14     C    0.06690   0.70920   0.17630   1.000
    C15     C    0.78300   0.48950   0.70440   1.000
    C16     C    0.78300   0.51050   0.29560   1.000
    C17     C    0.21700   0.48950   0.29560   1.000
    C18     C    0.70440   0.21700   0.51050   1.000
    C19     C    0.70440   0.78300   0.48950   1.000
    C20     C    0.29560   0.78300   0.51050   1.000
    C21     C    0.29560   0.21700   0.48950   1.000
    C22     C    0.51050   0.70440   0.21700   1.000
    C23     C    0.48950   0.70440   0.78300   1.000
    C24     C    0.51050   0.29560   0.78300   1.000
    C25     C    0.48950   0.29560   0.21700   1.000
    C26     C    0.01050   0.71700   0.20440   1.000
    C27     C    0.98950   0.28300   0.20440   1.000
    C28     C    0.01050   0.28300   0.79560   1.000
    C29     C    0.98950   0.71700   0.79560   1.000
    C30     C    0.71700   0.20440   0.01050   1.000
    C31     C    0.28300   0.20440   0.98950   1.000
    C32     C    0.28300   0.79560   0.01050   1.000
    C33     C    0.71700   0.79560   0.98950   1.000
    C34     C    0.20440   0.01050   0.71700   1.000
    C35     C    0.20440   0.98950   0.28300   1.000
    C36     C    0.79560   0.01050   0.28300   1.000
    C37     C    0.79560   0.98950   0.71700   1.000
    H38     H    0.77673   0.49147   0.74642   1.000
    H39     H    0.77673   0.50853   0.25358   1.000
    H40     H    0.22327   0.49147   0.25358   1.000
    H41     H    0.74642   0.22327   0.50853   1.000
    H42     H    0.74642   0.77673   0.49147   1.000
    H43     H    0.25358   0.77673   0.50853   1.000
    H44     H    0.25358   0.22327   0.49147   1.000
    H45     H    0.50853   0.74642   0.22327   1.000
    H46     H    0.49147   0.74642   0.77673   1.000
    H47     H    0.50853   0.25358   0.77673   1.000
    H48     H    0.49147   0.25358   0.22327   1.000
    H49     H    0.00853   0.72327   0.24642   1.000
    H50     H    0.99147   0.27673   0.24642   1.000
    H51     H    0.00853   0.27673   0.75358   1.000
    H52     H    0.99147   0.72327   0.75358   1.000
    H53     H    0.72327   0.24642   0.00853   1.000
    H54     H    0.27673   0.24642   0.99147   1.000
    H55     H    0.27673   0.75358   0.00853   1.000
    H56     H    0.72327   0.75358   0.99147   1.000
    H57     H    0.39314   0.40677   0.19864   1.000
    H58     H    0.10686   0.69864   0.09323   1.000
    H59     H    0.89314   0.30136   0.09323   1.000
    H60     H    0.10686   0.30136   0.90677   1.000
    H61     H    0.89314   0.69864   0.90677   1.000
    H62     H    0.69864   0.09323   0.10686   1.000
    H63     H    0.75358   0.00853   0.27673   1.000
    H64     H    0.75358   0.99147   0.72327   1.000
    C65     C    0.78450   0.54280   0.67030   1.000
    C66     C    0.78450   0.45720   0.32970   1.000
    C67     C    0.21550   0.54280   0.32970   1.000
    C68     C    0.67030   0.21550   0.45720   1.000
    C69     C    0.67030   0.78450   0.54280   1.000
    C70     C    0.32970   0.78450   0.45720   1.000
    C71     C    0.32970   0.21550   0.54280   1.000
    C72     C    0.45720   0.67030   0.21550   1.000
    C73     C    0.54280   0.67030   0.78450   1.000
    C74     C    0.45720   0.32970   0.78450   1.000
    C75     C    0.54280   0.32970   0.21550   1.000
    C76     C    0.95720   0.71550   0.17030   1.000
    C77     C    0.04280   0.28450   0.17030   1.000
    C78     C    0.95720   0.28450   0.82970   1.000
    C79     C    0.04280   0.71550   0.82970   1.000
    C80     C    0.71550   0.17030   0.95720   1.000
    C81     C    0.28450   0.17030   0.04280   1.000
    C82     C    0.28450   0.82970   0.95720   1.000
    C83     C    0.71550   0.82970   0.04280   1.000
    C84     C    0.17030   0.95720   0.71550   1.000
    C85     C    0.17030   0.04280   0.28450   1.000
    C86     C    0.82970   0.95720   0.28450   1.000
    C87     C    0.82970   0.04280   0.71550   1.000
    C88     C    0.56690   0.67630   0.20920   1.000
    C89     C    0.43310   0.67630   0.79080   1.000
    C90     C    0.53980   0.60810   0.79110   1.000
    C91     C    0.79080   0.43310   0.67630   1.000
    C92     C    0.79080   0.56690   0.32370   1.000
    C93     C    0.20920   0.43310   0.32370   1.000
    C94     C    0.67630   0.20920   0.56690   1.000
    C95     C    0.67630   0.79080   0.43310   1.000
    C96     C    0.32370   0.79080   0.56690   1.000
    C97     C    0.32370   0.20920   0.43310   1.000
    C98     C    0.93310   0.29080   0.17630   1.000
    C99     C    0.06690   0.29080   0.82370   1.000
    C100    C    0.93310   0.70920   0.82370   1.000
    C101    C    0.70920   0.17630   0.06690   1.000
    C102    C    0.29080   0.17630   0.93310   1.000
    C103    C    0.29080   0.82370   0.06690   1.000
    C104    C    0.70920   0.82370   0.93310   1.000
    C105    C    0.17630   0.06690   0.70920   1.000
    C106    C    0.17630   0.93310   0.29080   1.000
    C107    C    0.82370   0.06690   0.29080   1.000
    C108    C    0.82370   0.93310   0.70920   1.000
    C109    C    0.79110   0.53980   0.60810   1.000
    C110    C    0.79110   0.46020   0.39190   1.000
    C111    C    0.20890   0.53980   0.39190   1.000
    C112    C    0.60810   0.20890   0.46020   1.000
    C113    C    0.60810   0.79110   0.53980   1.000
    C114    C    0.39190   0.79110   0.46020   1.000
    C115    C    0.39190   0.20890   0.53980   1.000
    C116    C    0.46020   0.60810   0.20890   1.000
    C117    C    0.46020   0.39190   0.79110   1.000
    C118    C    0.53980   0.39190   0.20890   1.000
    C119    C    0.96020   0.70890   0.10810   1.000
    C120    C    0.03980   0.29110   0.10810   1.000
    C121    C    0.96020   0.29110   0.89190   1.000
    C122    C    0.03980   0.70890   0.89190   1.000
    C123    C    0.70890   0.10810   0.96020   1.000
    C124    C    0.29110   0.10810   0.03980   1.000
    C125    C    0.29110   0.89190   0.96020   1.000
    C126    C    0.70890   0.89190   0.03980   1.000
    C127    C    0.10810   0.96020   0.70890   1.000
    C128    C    0.10810   0.03980   0.29110   1.000
    C129    C    0.89190   0.96020   0.29110   1.000
    C130    C    0.89190   0.03980   0.70890   1.000
    H131    H    0.79235   0.57559   0.58511   1.000
    H132    H    0.79235   0.42441   0.41489   1.000
    H133    H    0.20765   0.57559   0.41489   1.000
    H134    H    0.58511   0.20765   0.42441   1.000
    H135    H    0.58511   0.79235   0.57559   1.000
    H136    H    0.41489   0.79235   0.42441   1.000
    H137    H    0.41489   0.20765   0.57559   1.000
    H138    H    0.42441   0.58511   0.20765   1.000
    H139    H    0.57559   0.58511   0.79235   1.000
    H140    H    0.42441   0.41489   0.79235   1.000
    H141    H    0.57559   0.41489   0.20765   1.000
    H142    H    0.92441   0.70765   0.08511   1.000
    H143    H    0.07559   0.29235   0.08511   1.000
    H144    H    0.92441   0.29235   0.91489   1.000
    H145    H    0.07559   0.70765   0.91489   1.000
    H146    H    0.70765   0.08511   0.92441   1.000
    H147    H    0.29235   0.08511   0.07559   1.000
    H148    H    0.29235   0.91489   0.92441   1.000
    H149    H    0.70765   0.91489   0.07559   1.000
    H150    H    0.08511   0.92441   0.70765   1.000
    H151    H    0.08511   0.07559   0.29235   1.000
    H152    H    0.91489   0.92441   0.29235   1.000
    H153    H    0.91489   0.07559   0.70765   1.000
    N154    N    0.79780   0.47620   0.51410   1.000
    N155    N    0.79780   0.52380   0.48590   1.000
    N156    N    0.20220   0.47620   0.48590   1.000
    N157    N    0.51410   0.20220   0.52380   1.000
    N158    N    0.51410   0.79780   0.47620   1.000
    N159    N    0.48590   0.79780   0.52380   1.000
    N160    N    0.48590   0.20220   0.47620   1.000
    N161    N    0.52380   0.51410   0.20220   1.000
    N162    N    0.47620   0.51410   0.79780   1.000
    N163    N    0.52380   0.48590   0.79780   1.000
    N164    N    0.47620   0.48590   0.20220   1.000
    N165    N    0.02380   0.70220   0.01410   1.000
    N166    N    0.97620   0.29780   0.01410   1.000
    N167    N    0.02380   0.29780   0.98590   1.000
    N168    N    0.97620   0.70220   0.98590   1.000
    N169    N    0.70220   0.01410   0.02380   1.000
    N170    N    0.29780   0.01410   0.97620   1.000
    N171    N    0.29780   0.98590   0.02380   1.000
    N172    N    0.70220   0.98590   0.97620   1.000
    N173    N    0.01410   0.02380   0.70220   1.000
    N174    N    0.01410   0.97620   0.29780   1.000
    N175    N    0.98590   0.02380   0.29780   1.000
    N176    N    0.98590   0.97620   0.70220   1.000
    C177    C    0.79590   0.48410   0.57970   1.000
    C178    C    0.79590   0.51590   0.42030   1.000
    C179    C    0.20410   0.48410   0.42030   1.000
    C180    C    0.57970   0.20410   0.51590   1.000
    C181    C    0.57970   0.79590   0.48410   1.000
    C182    C    0.42030   0.79590   0.51590   1.000
    C183    C    0.42030   0.20410   0.48410   1.000
    C184    C    0.51590   0.57970   0.20410   1.000
    C185    C    0.48410   0.57970   0.79590   1.000
    C186    C    0.51590   0.42030   0.79590   1.000
    C187    C    0.48410   0.42030   0.20410   1.000
    C188    C    0.01590   0.70410   0.07970   1.000
    C189    C    0.98410   0.29590   0.07970   1.000
    C190    C    0.01590   0.29590   0.92030   1.000
    C191    C    0.98410   0.70410   0.92030   1.000
    C192    C    0.70410   0.07970   0.01590   1.000
    C193    C    0.29590   0.07970   0.98410   1.000
    C194    C    0.29590   0.92030   0.01590   1.000
    C195    C    0.70410   0.92030   0.98410   1.000
    C196    C    0.07970   0.01590   0.70410   1.000
    C197    C    0.07970   0.98410   0.29590   1.000
    C198    C    0.92030   0.01590   0.29590   1.000
    C199    C    0.92030   0.98410   0.70410   1.000
    C200    C    0.79680   0.43050   0.61290   1.000
    C201    C    0.79680   0.56950   0.38710   1.000
    C202    C    0.20320   0.43050   0.38710   1.000
    C203    C    0.61290   0.20320   0.56950   1.000
    C204    C    0.61290   0.79680   0.43050   1.000
    C205    C    0.38710   0.79680   0.56950   1.000
    C206    C    0.38710   0.20320   0.43050   1.000
    C207    C    0.56950   0.61290   0.20320   1.000
    C208    C    0.43050   0.61290   0.79680   1.000
    C209    C    0.56950   0.38710   0.79680   1.000
    C210    C    0.43050   0.38710   0.20320   1.000
    C211    C    0.06950   0.70320   0.11290   1.000
    C212    C    0.93050   0.29680   0.11290   1.000
    C213    C    0.06950   0.29680   0.88710   1.000
    C214    C    0.93050   0.70320   0.88710   1.000
    C215    C    0.70320   0.11290   0.06950   1.000
    C216    C    0.29680   0.11290   0.93050   1.000
    C217    C    0.29680   0.88710   0.06950   1.000
    C218    C    0.70320   0.88710   0.93050   1.000
    C219    C    0.11290   0.06950   0.70320   1.000
    C220    C    0.11290   0.93050   0.29680   1.000
    C221    C    0.88710   0.06950   0.29680   1.000
    C222    C    0.88710   0.93050   0.70320   1.000
    H223    H    0.80136   0.39314   0.59323   1.000
    H224    H    0.80136   0.60686   0.40677   1.000
    H225    H    0.19864   0.39314   0.40677   1.000
    H226    H    0.59323   0.19864   0.60686   1.000
    H227    H    0.59323   0.80136   0.39314   1.000
    H228    H    0.40677   0.80136   0.60686   1.000
    H229    H    0.40677   0.19864   0.39314   1.000
    H230    H    0.60686   0.59323   0.19864   1.000
    H231    H    0.39314   0.59323   0.80136   1.000
    H232    H    0.60686   0.40677   0.80136   1.000
    H233    H    0.30136   0.09323   0.89314   1.000
    H234    H    0.30136   0.90677   0.10686   1.000
    H235    H    0.69864   0.90677   0.89314   1.000
    H236    H    0.09323   0.10686   0.69864   1.000
    H237    H    0.09323   0.89314   0.30136   1.000
    H238    H    0.90677   0.10686   0.30136   1.000
    H239    H    0.90677   0.89314   0.69864   1.000
loop_
    _geom_bond_atom_site_label_1
    _geom_bond_atom_site_label_2
    _geom_bond_distance
    _geom_bond_site_symmetry_2
    _ccdc_geom_bond_type
    H53    C30       0.93071      .   S
    H55    C32       0.93071      .   S
    C30    C101      1.38941      .   S
    C30    C80       1.38501  1_554   S
    C32    C103      1.38941      .   S
    C32    C82       1.38501  1_554   S
    N166   C189      1.44647      .   S
    N166   N167      1.21069  1_654   S
    N165   C188      1.44647      .   S
    N165   N168      1.21069  1_454   S
    C192   N169      1.44647      .   S
    C192   C215      1.37983      .   S
    C192   C123      1.37218  1_554   S
    C194   N171      1.44647      .   S
    C194   C217      1.37983      .   S
    C194   C125      1.37218  1_554   S
    N171   N170      1.21069  1_564   S
    N169   N172      1.21069  1_544   S
    C124   C81       1.37032      .   S
    C124   H147      0.93113      .   S
    C124   C193      1.37218  1_554   S
    C126   C83       1.37032      .   S
    C126   H149      0.93113      .   S
    C126   C195      1.37218  1_554   S
    C83    C33       1.38501  1_554   S
    C81    C31       1.38501  1_554   S
    C101   C215      1.39472      .   S
    C103   C217      1.39472      .   S
    C215   H62       0.92930      .   S
    C217   H234      0.92930      .   S
    C188   C119      1.37218  1_455   S
    C188   C211      1.37983      .   S
    C189   C120      1.37218  1_655   S
    C189   C212      1.37983      .   S
    H142   C119      0.93113      .   S
    H143   C120      0.93113      .   S
    H59    C212      0.92930      .   S
    H58    C211      0.92930      .   S
    C119   C76       1.37032      .   S
    C120   C77       1.37032      .   S
    C211   C14       1.39472      .   S
    C212   C98       1.39472      .   S
    C77    C27       1.38501  1_455   S
    C76    C26       1.38501  1_655   S
    C98    C27       1.38941      .   S
    C14    C26       1.38941      .   S
    H230   C207      0.92930      .   S
    H57    C210      0.92930      .   S
    N161   N164      1.21069      .   S
    N161   C184      1.44647      .   S
    N164   C187      1.44647      .   S
    C210   C187      1.37983      .   S
    C210   C13       1.39472      .   S
    C207   C184      1.37983      .   S
    C207   C88       1.39472      .   S
    C184   C116      1.37218      .   S
    C187   C118      1.37218      .   S
    C26    H49       0.93071      .   S
    C27    H50       0.93071      .   S
    H141   C118      0.93113      .   S
    H138   C116      0.93113      .   S
    C118   C75       1.37032      .   S
    C116   C72       1.37032      .   S
    C13    C25       1.38941      .   S
    C88    C22       1.38941      .   S
    C72    C22       1.38501      .   S
    C75    C25       1.38501      .   S
    C25    H48       0.93071      .   S
    C22    H45       0.93071      .   S
    H40    C17       0.93071      .   S
    H39    C16       0.93071      .   S
    H63    C36       0.93071      .   S
    H11    C35       0.93071      .   S
    C36    C86       1.38501  1_545   S
    C36    C107      1.38941      .   S
    C35    C85       1.38501  1_565   S
    C35    C106      1.38941      .   S
    C86    C129      1.37032      .   S
    C85    C128      1.37032      .   S
    C107   C221      1.39472      .   S
    C106   C220      1.39472      .   S
    C128   H151      0.93113      .   S
    C128   C197      1.37218  1_545   S
    C129   H152      0.93113      .   S
    C129   C198      1.37218  1_565   S
    C17    C93       1.38941      .   S
    C17    C67       1.38501      .   S
    C16    C92       1.38941      .   S
    C16    C66       1.38501      .   S
    C198   C221      1.37983      .   S
    C198   N175      1.44647      .   S
    C197   C220      1.37983      .   S
    C197   N174      1.44647      .   S
    C220   H237      0.92930      .   S
    C221   H238      0.92930      .   S
    N175   N174      1.21069  1_645   S
    C93    C202      1.39472      .   S
    C92    C201      1.39472      .   S
    C66    C110      1.37032      .   S
    C67    C111      1.37032      .   S
    C202   H225      0.92930      .   S
    C202   C179      1.37983      .   S
    C201   H224      0.92930      .   S
    C201   C178      1.37983      .   S
    C111   H133      0.93113      .   S
    C111   C179      1.37218      .   S
    C110   H132      0.93113      .   S
    C110   C178      1.37218      .   S
    H227   C204      0.92930      .   S
    H229   C206      0.92930      .   S
    C179   N156      1.44647      .   S
    C178   N155      1.44647      .   S
    H136   C114      0.93113      .   S
    H134   C112      0.93113      .   S
    C206   C97       1.39472      .   S
    C206   C183      1.37983      .   S
    C204   C95       1.39472      .   S
    C204   C181      1.37983      .   S
    C95    C19       1.38941      .   S
    C97    C21       1.38941      .   S
    C68    C112      1.37032      .   S
    C68    C18       1.38501      .   S
    C70    C114      1.37032      .   S
    C70    C20       1.38501      .   S
    C112   C180      1.37218      .   S
    C114   C182      1.37218      .   S
    N158   C181      1.44647      .   S
    N158   N159      1.21069      .   S
    N160   C183      1.44647      .   S
    N160   N157      1.21069      .   S
    C181   C113      1.37218      .   S
    C183   C115      1.37218      .   S
    N156   N6        1.21069      .   S
    N155   N154      1.21069      .   S
    C19    H42       0.93071      .   S
    C19    C69       1.38501      .   S
    C21    H44       0.93071      .   S
    C21    C71       1.38501      .   S
    H43    C20       0.93071      .   S
    H41    C18       0.93071      .   S
    C18    C94       1.38941      .   S
    C20    C96       1.38941      .   S
    N6     C7        1.44647      .   S
    N154   C177      1.44647      .   S
    C180   N157      1.44647      .   S
    C180   C203      1.37983      .   S
    C182   N159      1.44647      .   S
    C182   C205      1.37983      .   S
    C115   C71       1.37032      .   S
    C115   H137      0.93113      .   S
    C113   C69       1.37032      .   S
    C113   H135      0.93113      .   S
    C94    C203      1.39472      .   S
    C96    C205      1.39472      .   S
    C203   H226      0.92930      .   S
    C205   H228      0.92930      .   S
    C177   C109      1.37218      .   S
    C177   C200      1.37983      .   S
    C7     C4        1.37218      .   S
    C7     C8        1.37983      .   S
    H5     C4        0.93113      .   S
    H131   C109      0.93113      .   S
    H223   C200      0.92930      .   S
    H9     C8        0.92930      .   S
    C4     C2        1.37032      .   S
    C109   C65       1.37032      .   S
    C200   C91       1.39472      .   S
    C8     C3        1.39472      .   S
    C65    C15       1.38501      .   S
    C2     C0        1.38501      .   S
    C91    C15       1.38941      .   S
    C3     C0        1.38941      .   S
    H239   C222      0.92930      .   S
    H236   C219      0.92930      .   S
    N173   N176      1.21069  1_445   S
    N173   C196      1.44647      .   S
    N176   C199      1.44647      .   S
    C222   C199      1.37983      .   S
    C222   C108      1.39472      .   S
    C219   C196      1.37983      .   S
    C219   C105      1.39472      .   S
    C196   C127      1.37218  1_545   S
    C199   C130      1.37218  1_565   S
    C15    H38       0.93071      .   S
    C0     H1        0.93071      .   S
    H153   C130      0.93113      .   S
    H150   C127      0.93113      .   S
    C127   C84       1.37032      .   S
    C130   C87       1.37032      .   S
    C108   C37       1.38941      .   S
    C105   C34       1.38941      .   S
    C84    C34       1.38501  1_565   S
    C87    C37       1.38501  1_545   S
    C34    H10       0.93071      .   S
    C37    H64       0.93071      .   S
    H51    C28       0.93071      .   S
    H52    C29       0.93071      .   S
    H47    C24       0.93071      .   S
    H46    C23       0.93071      .   S
    C24    C74       1.38501      .   S
    C24    C12       1.38941      .   S
    C23    C73       1.38501      .   S
    C23    C89       1.38941      .   S
    C73    C90       1.37032      .   S
    C74    C117      1.37032      .   S
    C89    C208      1.39472      .   S
    C12    C209      1.39472      .   S
    C90    H139      0.93113      .   S
    C90    C185      1.37218      .   S
    C117   H140      0.93113      .   S
    C117   C186      1.37218      .   S
    C28    C99       1.38941      .   S
    C28    C78       1.38501  1_455   S
    C29    C100      1.38941      .   S
    C29    C79       1.38501  1_655   S
    C186   C209      1.37983      .   S
    C186   N163      1.44647      .   S
    C185   C208      1.37983      .   S
    C185   N162      1.44647      .   S
    C208   H231      0.92930      .   S
    C209   H232      0.92930      .   S
    N162   N163      1.21069      .   S
    C100   C214      1.39472      .   S
    C99    C213      1.39472      .   S
    C78    C121      1.37032      .   S
    C79    C122      1.37032      .   S
    C214   H61       0.92930      .   S
    C214   C191      1.37983      .   S
    C213   H60       0.92930      .   S
    C213   C190      1.37983      .   S
    C121   H144      0.93113      .   S
    C121   C190      1.37218  1_655   S
    C122   H145      0.93113      .   S
    C122   C191      1.37218  1_455   S
    H233   C216      0.92930      .   S
    H235   C218      0.92930      .   S
    C190   N167      1.44647      .   S
    C191   N168      1.44647      .   S
    H146   C123      0.93113      .   S
    H148   C125      0.93113      .   S
    C216   C102      1.39472      .   S
    C216   C193      1.37983      .   S
    C218   C104      1.39472      .   S
    C218   C195      1.37983      .   S
    C102   C31       1.38941      .   S
    C104   C33       1.38941      .   S
    C80    C123      1.37032      .   S
    C82    C125      1.37032      .   S
    N172   C195      1.44647      .   S
    N170   C193      1.44647      .   S
    C31    H54       0.93071      .   S
    C33    H56       0.93071      .   S
