# CIF file generated by openbabel 2.4.90, see http://openbabel.sf.net
data_I
_chemical_name_common ''
_cell_length_a 21.8827
_cell_length_b 21.8827
_cell_length_c 21.8827
_cell_angle_alpha 90
_cell_angle_beta 90
_cell_angle_gamma 90
_space_group_name_H-M_alt 'P 1'
_space_group_name_Hall 'P 1'
loop_
    _symmetry_equiv_pos_as_xyz
    x,y,z
loop_
    _atom_site_label
    _atom_site_type_symbol
    _atom_site_fract_x
    _atom_site_fract_y
    _atom_site_fract_z
    _atom_site_occupancy
    C0      C    0.22150   0.39510   0.69940   1.000
    C1      C    0.20860   0.62490   0.71050   1.000
    C2      C    0.77850   0.60490   0.69940   1.000
    C3      C    0.77850   0.39510   0.30060   1.000
    C4      C    0.22150   0.60490   0.30060   1.000
    C5      C    0.69940   0.22150   0.39510   1.000
    C6      C    0.69940   0.77850   0.60490   1.000
    C7      C    0.30060   0.77850   0.39510   1.000
    C8      C    0.30060   0.22150   0.60490   1.000
    C9      C    0.39510   0.69940   0.22150   1.000
    C10     C    0.60490   0.69940   0.77850   1.000
    C11     C    0.39510   0.30060   0.77850   1.000
    C12     C    0.60490   0.30060   0.22150   1.000
    C13     C    0.89510   0.72150   0.19940   1.000
    C14     C    0.10490   0.27850   0.19940   1.000
    C15     C    0.89510   0.27850   0.80060   1.000
    C16     C    0.10490   0.72150   0.80060   1.000
    C17     C    0.72150   0.19940   0.89510   1.000
    C18     C    0.27850   0.19940   0.10490   1.000
    C19     C    0.27850   0.80060   0.89510   1.000
    C20     C    0.72150   0.80060   0.10490   1.000
    C21     C    0.19940   0.89510   0.72150   1.000
    C22     C    0.19940   0.10490   0.27850   1.000
    C23     C    0.80060   0.89510   0.27850   1.000
    C24     C    0.80060   0.10490   0.72150   1.000
    C25     C    0.79140   0.37510   0.71050   1.000
    C26     C    0.79140   0.62490   0.28950   1.000
    C27     C    0.20860   0.37510   0.28950   1.000
    C28     C    0.71050   0.20860   0.62490   1.000
    C29     C    0.71050   0.79140   0.37510   1.000
    C30     C    0.28950   0.79140   0.62490   1.000
    C31     C    0.28950   0.20860   0.37510   1.000
    C32     C    0.62490   0.71050   0.20860   1.000
    C33     C    0.37510   0.71050   0.79140   1.000
    C34     C    0.62490   0.28950   0.79140   1.000
    C35     C    0.37510   0.28950   0.20860   1.000
    C36     C    0.12490   0.70860   0.21050   1.000
    C37     C    0.87510   0.29140   0.21050   1.000
    C38     C    0.12490   0.29140   0.78950   1.000
    C39     C    0.87510   0.70860   0.78950   1.000
    C40     C    0.70860   0.21050   0.12490   1.000
    C41     C    0.29140   0.21050   0.87510   1.000
    C42     C    0.29140   0.78950   0.12490   1.000
    C43     C    0.70860   0.78950   0.87510   1.000
    C44     C    0.21050   0.12490   0.70860   1.000
    C45     C    0.21050   0.87510   0.29140   1.000
    C46     C    0.78950   0.12490   0.29140   1.000
    C47     C    0.78950   0.87510   0.70860   1.000
