# CIF file generated by openbabel 2.4.90, see http://openbabel.sf.net
data_I
_chemical_name_common ''
_cell_length_a 21.8827
_cell_length_b 21.8827
_cell_length_c 21.8827
_cell_angle_alpha 90
_cell_angle_beta 90
_cell_angle_gamma 90
_space_group_name_H-M_alt 'P 1'
_space_group_name_Hall 'P 1'
loop_
    _symmetry_equiv_pos_as_xyz
    x,y,z
loop_
    _atom_site_label
    _atom_site_type_symbol
    _atom_site_fract_x
    _atom_site_fract_y
    _atom_site_fract_z
    _atom_site_occupancy
    N0      N    0.50000   0.50000   0.79103   1.000
    N1      N    0.20897   0.50000   0.50000   1.000
    N2      N    0.00000   0.00000   0.29103   1.000
    N3      N    0.00000   0.29103   0.00000   1.000
    N4      N    0.50000   0.50000   0.20897   1.000
    N5      N    0.50000   0.20897   0.50000   1.000
    N6      N    0.00000   0.70897   0.00000   1.000
    N7      N    0.50000   0.79103   0.50000   1.000
    N8      N    0.79103   0.50000   0.50000   1.000
    N9      N    0.29103   0.00000   0.00000   1.000
    N10     N    0.00000   0.00000   0.70897   1.000
    N11     N    0.70897   0.00000   0.00000   1.000
    Zr12    Zr   0.24169   0.24169   0.24169   1.000
    O13     O    0.32249   0.22531   0.34687   1.000
    O14     O    0.34687   0.32249   0.22531   1.000
    O15     O    0.16706   0.13931   0.26398   1.000
    O16     O    0.22531   0.34687   0.32249   1.000
    O17     O    0.13931   0.26398   0.16706   1.000
    O18     O    0.26398   0.16706   0.13931   1.000
    Zr19    Zr   0.74169   0.74169   0.74169   1.000
    O20     O    0.66706   0.76398   0.63931   1.000
    O21     O    0.82249   0.84687   0.72531   1.000
    O22     O    0.72531   0.82249   0.84687   1.000
    O23     O    0.84687   0.72531   0.82249   1.000
    O24     O    0.76398   0.63931   0.66706   1.000
    O25     O    0.63931   0.66706   0.76398   1.000
    Zr26    Zr   0.74169   0.25831   0.25831   1.000
    O27     O    0.82249   0.15313   0.27469   1.000
    O28     O    0.84687   0.27469   0.17751   1.000
    O29     O    0.63931   0.33294   0.23602   1.000
    O30     O    0.76398   0.36069   0.33294   1.000
    O31     O    0.66706   0.23602   0.36069   1.000
    O32     O    0.72531   0.17751   0.15313   1.000
    Zr33    Zr   0.25831   0.74169   0.25831   1.000
    O34     O    0.15313   0.72531   0.17751   1.000
    O35     O    0.36069   0.66706   0.23602   1.000
    O36     O    0.27469   0.82249   0.15313   1.000
    O37     O    0.23602   0.63931   0.33294   1.000
    O38     O    0.17751   0.84687   0.27469   1.000
    O39     O    0.33294   0.76398   0.36069   1.000
    Zr40    Zr   0.25831   0.25831   0.74169   1.000
    O41     O    0.17751   0.15313   0.72531   1.000
    O42     O    0.15313   0.27469   0.82249   1.000
    O43     O    0.27469   0.17751   0.84687   1.000
    O44     O    0.33294   0.23602   0.63931   1.000
    O45     O    0.23602   0.36069   0.66706   1.000
    O46     O    0.36069   0.33294   0.76398   1.000
    Zr47    Zr   0.24169   0.75831   0.75831   1.000
    O48     O    0.34687   0.67751   0.77469   1.000
    O49     O    0.26398   0.83294   0.86069   1.000
    O50     O    0.32249   0.77469   0.65313   1.000
    O51     O    0.13931   0.73602   0.83294   1.000
    O52     O    0.16706   0.86069   0.73602   1.000
    O53     O    0.22531   0.65313   0.67751   1.000
    Zr54    Zr   0.75831   0.24169   0.75831   1.000
    O55     O    0.77469   0.34687   0.67751   1.000
    O56     O    0.83294   0.13931   0.73602   1.000
    O57     O    0.65313   0.32249   0.77469   1.000
    O58     O    0.86069   0.26398   0.83294   1.000
    O59     O    0.67751   0.22531   0.65313   1.000
    O60     O    0.73602   0.16706   0.86069   1.000
    Zr61    Zr   0.75831   0.75831   0.24169   1.000
    O62     O    0.65313   0.67751   0.22531   1.000
    O63     O    0.77469   0.65313   0.32249   1.000
    O64     O    0.67751   0.77469   0.34687   1.000
    O65     O    0.83294   0.86069   0.26398   1.000
    O66     O    0.86069   0.73602   0.16706   1.000
    O67     O    0.73602   0.83294   0.13931   1.000
loop_
    _geom_bond_atom_site_label_1
    _geom_bond_atom_site_label_2
    _geom_bond_distance
    _geom_bond_site_symmetry_2
    _ccdc_geom_bond_type
    Zr12   O13       2.92451      .   S
    N5     O13       5.14242      .   S
    Zr12   O14       2.92451      .   S
    N4     O14       5.14242      .   S
    Zr12   O15       2.81502      .   S
    N2     O15       4.79656      .   S
    Zr12   O16       2.92451      .   S
    N1     O16       5.14242      .   S
    Zr12   O17       2.81502      .   S
    N3     O17       4.79656      .   S
    Zr12   O18       2.81502      .   S
    N9     O18       4.79656      .   S
    Zr19   O20       2.81502      .   S
    N7     O20       4.79656      .   S
    Zr19   O21       2.92451      .   S
    N10    O21       5.14242  1_445   S
    Zr19   O22       2.92451      .   S
    N11    O22       5.14242  1_544   S
    Zr19   O23       2.92451      .   S
    N6     O23       5.14242  1_454   S
    Zr19   O24       2.81502      .   S
    N8     O24       4.79656      .   S
    Zr19   O25       2.81502      .   S
    N0     O25       4.79656      .   S
    Zr26   O27       2.92451      .   S
    N2     O27       5.14242  1_455   S
    Zr26   O28       2.92451      .   S
    N3     O28       5.14242  1_455   S
    Zr26   O29       2.81502      .   S
    N4     O29       4.79656      .   S
    Zr26   O30       2.81502      .   S
    N8     O30       4.79656      .   S
    Zr26   O31       2.81502      .   S
    N5     O31       4.79656      .   S
    Zr26   O32       2.92451      .   S
    N11    O32       5.14242      .   S
    Zr33   O34       2.92451      .   S
    N6     O34       5.14242      .   S
    Zr33   O35       2.81502      .   S
    N4     O35       4.79656      .   S
    Zr33   O36       2.92451      .   S
    N9     O36       5.14242  1_545   S
    Zr33   O37       2.81502      .   S
    N1     O37       4.79656      .   S
    Zr33   O38       2.92451      .   S
    N2     O38       5.14242  1_545   S
    Zr33   O39       2.81502      .   S
    N7     O39       4.79656      .   S
    Zr40   O41       2.92451      .   S
    N10    O41       5.14242      .   S
    Zr40   O42       2.92451      .   S
    N3     O42       5.14242  1_554   S
    Zr40   O43       2.92451      .   S
    N9     O43       5.14242  1_554   S
    Zr40   O44       2.81502      .   S
    N5     O44       4.79656      .   S
    Zr40   O45       2.81502      .   S
    N1     O45       4.79656      .   S
    Zr40   O46       2.81502      .   S
    N0     O46       4.79656      .   S
    Zr47   O48       2.92451      .   S
    N0     O48       5.14242      .   S
    Zr47   O49       2.81502      .   S
    N9     O49       4.79656  1_544   S
    Zr47   O50       2.92451      .   S
    N7     O50       5.14242      .   S
    Zr47   O51       2.81502      .   S
    N6     O51       4.79656  1_554   S
    Zr47   O52       2.81502      .   S
    N10    O52       4.79656  1_545   S
    Zr47   O53       2.92451      .   S
    N1     O53       5.14242      .   S
    Zr54   O55       2.92451      .   S
    N8     O55       5.14242      .   S
    Zr54   O56       2.81502      .   S
    N10    O56       4.79656  1_455   S
    Zr54   O57       2.92451      .   S
    N0     O57       5.14242      .   S
    Zr54   O58       2.81502      .   S
    N3     O58       4.79656  1_454   S
    Zr54   O59       2.92451      .   S
    N5     O59       5.14242      .   S
    Zr54   O60       2.81502      .   S
    N11    O60       4.79656  1_554   S
    Zr61   O62       2.92451      .   S
    N4     O62       5.14242      .   S
    Zr61   O63       2.92451      .   S
    N8     O63       5.14242      .   S
    Zr61   O64       2.92451      .   S
    N7     O64       5.14242      .   S
    Zr61   O65       2.81502      .   S
    N2     O65       4.79656  1_445   S
    Zr61   O66       2.81502      .   S
    N6     O66       4.79656  1_455   S
    Zr61   O67       2.81502      .   S
    N11    O67       4.79656  1_545   S
