# CIF file generated by openbabel 2.4.90, see http://openbabel.sf.net
data_I
_chemical_name_common ''
_cell_length_a 20.7004
_cell_length_b 20.7004
_cell_length_c 20.7004
_cell_angle_alpha 90
_cell_angle_beta 90
_cell_angle_gamma 90
_space_group_name_H-M_alt 'P 1'
_space_group_name_Hall 'P 1'
loop_
    _symmetry_equiv_pos_as_xyz
    x,y,z
loop_
    _atom_site_label
    _atom_site_type_symbol
    _atom_site_fract_x
    _atom_site_fract_y
    _atom_site_fract_z
    _atom_site_occupancy
    O0      O    0.17047   0.00000   0.09530   1.000
    C1      C    0.15360   0.00000   0.84640   1.000
    C2      C    0.20500   0.00000   0.20500   1.000
    C3      C    0.26750   0.00000   0.18440   1.000
    C4      C    0.00000   0.26750   0.81560   1.000
    C5      C    0.00000   0.73250   0.81560   1.000
    C6      C    0.00000   0.73250   0.18440   1.000
    O7      O    0.82953   0.00000   0.09530   1.000
    O8      O    0.82953   0.00000   0.90470   1.000
    O9      O    0.17047   0.00000   0.90470   1.000
    O10     O    0.09530   0.17047   0.00000   1.000
    O11     O    0.09530   0.82953   0.00000   1.000
    O12     O    0.90470   0.82953   0.00000   1.000
    O13     O    0.90470   0.17047   0.00000   1.000
    O14     O    0.00000   0.09530   0.17047   1.000
    O15     O    0.00000   0.09530   0.82953   1.000
    O16     O    0.00000   0.90470   0.82953   1.000
    O17     O    0.00000   0.90470   0.17047   1.000
    O18     O    0.00000   0.17047   0.90470   1.000
    O19     O    0.00000   0.82953   0.90470   1.000
    O20     O    0.00000   0.82953   0.09530   1.000
    O21     O    0.00000   0.17047   0.09530   1.000
    O22     O    0.17047   0.09530   0.00000   1.000
    O23     O    0.82953   0.09530   0.00000   1.000
    O24     O    0.82953   0.90470   0.00000   1.000
    O25     O    0.17047   0.90470   0.00000   1.000
    O26     O    0.09530   0.00000   0.82953   1.000
    O27     O    0.09530   0.00000   0.17047   1.000
    O28     O    0.90470   0.00000   0.17047   1.000
    O29     O    0.90470   0.00000   0.82953   1.000
    O30     O    0.17047   0.50000   0.59530   1.000
    O31     O    0.82953   0.50000   0.59530   1.000
    O32     O    0.82953   0.50000   0.40470   1.000
    O33     O    0.17047   0.50000   0.40470   1.000
    O34     O    0.09530   0.67047   0.50000   1.000
    O35     O    0.09530   0.32953   0.50000   1.000
    O36     O    0.90470   0.32953   0.50000   1.000
    O37     O    0.90470   0.67047   0.50000   1.000
    O38     O    0.00000   0.59530   0.67047   1.000
    O39     O    0.00000   0.59530   0.32953   1.000
    O40     O    0.00000   0.40470   0.32953   1.000
    O41     O    0.00000   0.40470   0.67047   1.000
    O42     O    0.00000   0.67047   0.40470   1.000
    O43     O    0.00000   0.32953   0.40470   1.000
    O44     O    0.00000   0.32953   0.59530   1.000
    O45     O    0.00000   0.67047   0.59530   1.000
    O46     O    0.17047   0.59530   0.50000   1.000
    O47     O    0.82953   0.59530   0.50000   1.000
    O48     O    0.82953   0.40470   0.50000   1.000
    O49     O    0.17047   0.40470   0.50000   1.000
    O50     O    0.09530   0.50000   0.32953   1.000
    O51     O    0.09530   0.50000   0.67047   1.000
    O52     O    0.90470   0.50000   0.67047   1.000
    O53     O    0.90470   0.50000   0.32953   1.000
    O54     O    0.67047   0.00000   0.59530   1.000
    O55     O    0.32953   0.00000   0.59530   1.000
    O56     O    0.32953   0.00000   0.40470   1.000
    O57     O    0.67047   0.00000   0.40470   1.000
    O58     O    0.59530   0.17047   0.50000   1.000
    O59     O    0.59530   0.82953   0.50000   1.000
    O60     O    0.40470   0.82953   0.50000   1.000
    O61     O    0.40470   0.17047   0.50000   1.000
    O62     O    0.50000   0.09530   0.67047   1.000
    O63     O    0.50000   0.09530   0.32953   1.000
    O64     O    0.50000   0.90470   0.32953   1.000
    O65     O    0.50000   0.90470   0.67047   1.000
    O66     O    0.50000   0.17047   0.40470   1.000
    O67     O    0.50000   0.82953   0.40470   1.000
    O68     O    0.50000   0.82953   0.59530   1.000
    O69     O    0.50000   0.17047   0.59530   1.000
    O70     O    0.67047   0.09530   0.50000   1.000
    O71     O    0.32953   0.09530   0.50000   1.000
    O72     O    0.32953   0.90470   0.50000   1.000
    O73     O    0.67047   0.90470   0.50000   1.000
    O74     O    0.59530   0.00000   0.32953   1.000
    O75     O    0.59530   0.00000   0.67047   1.000
    O76     O    0.40470   0.00000   0.67047   1.000
    O77     O    0.40470   0.00000   0.32953   1.000
    C78     C    0.50000   0.34640   0.84640   1.000
    C79     C    0.50000   0.65360   0.84640   1.000
    O80     O    0.67047   0.50000   0.09530   1.000
    O81     O    0.32953   0.50000   0.09530   1.000
    O82     O    0.32953   0.50000   0.90470   1.000
    O83     O    0.67047   0.50000   0.90470   1.000
    O84     O    0.59530   0.67047   0.00000   1.000
    O85     O    0.59530   0.32953   0.00000   1.000
    O86     O    0.40470   0.32953   0.00000   1.000
    O87     O    0.40470   0.67047   0.00000   1.000
    O88     O    0.50000   0.59530   0.17047   1.000
    O89     O    0.50000   0.59530   0.82953   1.000
    O90     O    0.50000   0.40470   0.82953   1.000
    O91     O    0.50000   0.40470   0.17047   1.000
    O92     O    0.50000   0.67047   0.90470   1.000
    O93     O    0.50000   0.32953   0.90470   1.000
    O94     O    0.50000   0.32953   0.09530   1.000
    O95     O    0.50000   0.67047   0.09530   1.000
    O96     O    0.67047   0.59530   0.00000   1.000
    O97     O    0.32953   0.59530   0.00000   1.000
    O98     O    0.32953   0.40470   0.00000   1.000
    O99     O    0.67047   0.40470   0.00000   1.000
    O100    O    0.59530   0.50000   0.82953   1.000
    O101    O    0.59530   0.50000   0.17047   1.000
    O102    O    0.40470   0.50000   0.17047   1.000
    O103    O    0.40470   0.50000   0.82953   1.000
    C104    C    0.20500   0.50000   0.29500   1.000
    C105    C    0.20500   0.70500   0.50000   1.000
    C106    C    0.20500   0.29500   0.50000   1.000
    C107    C    0.84640   0.00000   0.84640   1.000
    C108    C    0.84640   0.00000   0.15360   1.000
    C109    C    0.15360   0.00000   0.15360   1.000
    C110    C    0.84640   0.15360   0.00000   1.000
    C111    C    0.84640   0.84640   0.00000   1.000
    C112    C    0.15360   0.84640   0.00000   1.000
    C113    C    0.15360   0.15360   0.00000   1.000
    C114    C    0.00000   0.84640   0.15360   1.000
    C115    C    0.00000   0.84640   0.84640   1.000
    C116    C    0.00000   0.15360   0.84640   1.000
    C117    C    0.00000   0.15360   0.15360   1.000
    C118    C    0.15360   0.50000   0.34640   1.000
    C119    C    0.84640   0.50000   0.34640   1.000
    C120    C    0.84640   0.50000   0.65360   1.000
    C121    C    0.15360   0.50000   0.65360   1.000
    C122    C    0.84640   0.65360   0.50000   1.000
    C123    C    0.84640   0.34640   0.50000   1.000
    C124    C    0.15360   0.34640   0.50000   1.000
    C125    C    0.15360   0.65360   0.50000   1.000
    C126    C    0.00000   0.34640   0.65360   1.000
    C127    C    0.00000   0.34640   0.34640   1.000
    C128    C    0.00000   0.65360   0.34640   1.000
    C129    C    0.00000   0.65360   0.65360   1.000
    C130    C    0.65360   0.00000   0.34640   1.000
    C131    C    0.34640   0.00000   0.34640   1.000
    C132    C    0.34640   0.00000   0.65360   1.000
    C133    C    0.65360   0.00000   0.65360   1.000
    C134    C    0.34640   0.15360   0.50000   1.000
    C135    C    0.34640   0.84640   0.50000   1.000
    C136    C    0.65360   0.84640   0.50000   1.000
    C137    C    0.65360   0.15360   0.50000   1.000
    C138    C    0.50000   0.84640   0.65360   1.000
    C139    C    0.50000   0.84640   0.34640   1.000
    C140    C    0.50000   0.15360   0.34640   1.000
    C141    C    0.50000   0.15360   0.65360   1.000
    C142    C    0.65360   0.50000   0.84640   1.000
    C143    C    0.34640   0.50000   0.84640   1.000
    C144    C    0.34640   0.50000   0.15360   1.000
    C145    C    0.65360   0.50000   0.15360   1.000
    C146    C    0.34640   0.65360   0.00000   1.000
    C147    C    0.34640   0.34640   0.00000   1.000
    C148    C    0.65360   0.34640   0.00000   1.000
    C149    C    0.65360   0.65360   0.00000   1.000
    C150    C    0.50000   0.34640   0.15360   1.000
    C151    C    0.50000   0.65360   0.15360   1.000
    C152    C    0.00000   0.18440   0.26750   1.000
    C153    C    0.00000   0.18440   0.73250   1.000
    C154    C    0.00000   0.81560   0.73250   1.000
    C155    C    0.00000   0.81560   0.26750   1.000
    C156    C    0.79500   0.00000   0.20500   1.000
    C157    C    0.79500   0.00000   0.79500   1.000
    C158    C    0.20500   0.00000   0.79500   1.000
    C159    C    0.20500   0.20500   0.00000   1.000
    C160    C    0.20500   0.79500   0.00000   1.000
    C161    C    0.79500   0.79500   0.00000   1.000
    C162    C    0.79500   0.20500   0.00000   1.000
    C163    C    0.00000   0.20500   0.20500   1.000
    C164    C    0.00000   0.20500   0.79500   1.000
    C165    C    0.00000   0.79500   0.79500   1.000
    C166    C    0.00000   0.79500   0.20500   1.000
    C167    C    0.20500   0.50000   0.70500   1.000
    C168    C    0.79500   0.50000   0.70500   1.000
    C169    C    0.79500   0.50000   0.29500   1.000
    C170    C    0.79500   0.29500   0.50000   1.000
    C171    C    0.79500   0.70500   0.50000   1.000
    C172    C    0.00000   0.70500   0.70500   1.000
    C173    C    0.00000   0.70500   0.29500   1.000
    C174    C    0.00000   0.29500   0.29500   1.000
    C175    C    0.00000   0.29500   0.70500   1.000
    C176    C    0.70500   0.00000   0.70500   1.000
    C177    C    0.29500   0.00000   0.70500   1.000
    C178    C    0.29500   0.00000   0.29500   1.000
    C179    C    0.70500   0.00000   0.29500   1.000
    C180    C    0.70500   0.20500   0.50000   1.000
    C181    C    0.70500   0.79500   0.50000   1.000
    C182    C    0.29500   0.79500   0.50000   1.000
    C183    C    0.29500   0.20500   0.50000   1.000
    C184    C    0.50000   0.20500   0.70500   1.000
    C185    C    0.50000   0.20500   0.29500   1.000
    C186    C    0.50000   0.79500   0.29500   1.000
    C187    C    0.50000   0.79500   0.70500   1.000
    C188    C    0.70500   0.50000   0.20500   1.000
    C189    C    0.29500   0.50000   0.20500   1.000
    C190    C    0.29500   0.50000   0.79500   1.000
    C191    C    0.70500   0.50000   0.79500   1.000
    C192    C    0.70500   0.70500   0.00000   1.000
    C193    C    0.70500   0.29500   0.00000   1.000
    C194    C    0.29500   0.29500   0.00000   1.000
    C195    C    0.29500   0.70500   0.00000   1.000
    C196    C    0.50000   0.70500   0.20500   1.000
    C197    C    0.50000   0.70500   0.79500   1.000
    C198    C    0.50000   0.29500   0.79500   1.000
    C199    C    0.50000   0.29500   0.20500   1.000
    C200    C    0.73250   0.00000   0.18440   1.000
    C201    C    0.73250   0.00000   0.81560   1.000
    C202    C    0.26750   0.00000   0.81560   1.000
    C203    C    0.18440   0.26750   0.00000   1.000
    C204    C    0.18440   0.73250   0.00000   1.000
    C205    C    0.81560   0.73250   0.00000   1.000
    C206    C    0.81560   0.26750   0.00000   1.000
    C207    C    0.00000   0.26750   0.18440   1.000
    C208    C    0.26750   0.18440   0.00000   1.000
    C209    C    0.73250   0.18440   0.00000   1.000
    C210    C    0.73250   0.81560   0.00000   1.000
    C211    C    0.26750   0.81560   0.00000   1.000
    C212    C    0.18440   0.00000   0.73250   1.000
    C213    C    0.18440   0.00000   0.26750   1.000
    C214    C    0.81560   0.00000   0.26750   1.000
    C215    C    0.81560   0.00000   0.73250   1.000
    C216    C    0.26750   0.50000   0.68440   1.000
    C217    C    0.73250   0.50000   0.68440   1.000
    C218    C    0.73250   0.50000   0.31560   1.000
    C219    C    0.26750   0.50000   0.31560   1.000
    C220    C    0.18440   0.76750   0.50000   1.000
    C221    C    0.18440   0.23250   0.50000   1.000
    C222    C    0.81560   0.23250   0.50000   1.000
    C223    C    0.81560   0.76750   0.50000   1.000
    C224    C    0.00000   0.68440   0.76750   1.000
    C225    C    0.00000   0.68440   0.23250   1.000
    C226    C    0.00000   0.31560   0.23250   1.000
    C227    C    0.00000   0.31560   0.76750   1.000
    C228    C    0.00000   0.76750   0.31560   1.000
    C229    C    0.00000   0.23250   0.31560   1.000
    C230    C    0.00000   0.23250   0.68440   1.000
    C231    C    0.00000   0.76750   0.68440   1.000
    C232    C    0.26750   0.68440   0.50000   1.000
    C233    C    0.73250   0.68440   0.50000   1.000
    C234    C    0.73250   0.31560   0.50000   1.000
    C235    C    0.26750   0.31560   0.50000   1.000
    C236    C    0.18440   0.50000   0.23250   1.000
    C237    C    0.18440   0.50000   0.76750   1.000
    C238    C    0.81560   0.50000   0.76750   1.000
    C239    C    0.81560   0.50000   0.23250   1.000
    C240    C    0.76750   0.00000   0.68440   1.000
    C241    C    0.23250   0.00000   0.68440   1.000
    C242    C    0.23250   0.00000   0.31560   1.000
    C243    C    0.76750   0.00000   0.31560   1.000
    C244    C    0.68440   0.26750   0.50000   1.000
    C245    C    0.68440   0.73250   0.50000   1.000
    C246    C    0.31560   0.73250   0.50000   1.000
    C247    C    0.31560   0.26750   0.50000   1.000
    C248    C    0.50000   0.18440   0.76750   1.000
    C249    C    0.50000   0.18440   0.23250   1.000
    C250    C    0.50000   0.81560   0.23250   1.000
    C251    C    0.50000   0.81560   0.76750   1.000
    C252    C    0.50000   0.26750   0.31560   1.000
    C253    C    0.50000   0.73250   0.31560   1.000
    C254    C    0.50000   0.73250   0.68440   1.000
    C255    C    0.50000   0.26750   0.68440   1.000
    C256    C    0.76750   0.18440   0.50000   1.000
    C257    C    0.23250   0.18440   0.50000   1.000
    C258    C    0.23250   0.81560   0.50000   1.000
    C259    C    0.76750   0.81560   0.50000   1.000
    C260    C    0.68440   0.00000   0.23250   1.000
    C261    C    0.68440   0.00000   0.76750   1.000
    C262    C    0.31560   0.00000   0.76750   1.000
    C263    C    0.31560   0.00000   0.23250   1.000
    C264    C    0.76750   0.50000   0.18440   1.000
    C265    C    0.23250   0.50000   0.18440   1.000
    C266    C    0.23250   0.50000   0.81560   1.000
    C267    C    0.76750   0.50000   0.81560   1.000
    C268    C    0.68440   0.76750   0.00000   1.000
    C269    C    0.68440   0.23250   0.00000   1.000
    C270    C    0.31560   0.23250   0.00000   1.000
    C271    C    0.31560   0.76750   0.00000   1.000
    C272    C    0.50000   0.68440   0.26750   1.000
    C273    C    0.50000   0.68440   0.73250   1.000
    C274    C    0.50000   0.31560   0.73250   1.000
    C275    C    0.50000   0.31560   0.26750   1.000
    C276    C    0.50000   0.76750   0.81560   1.000
    C277    C    0.50000   0.23250   0.81560   1.000
    C278    C    0.50000   0.23250   0.18440   1.000
    C279    C    0.50000   0.76750   0.18440   1.000
    C280    C    0.76750   0.68440   0.00000   1.000
    C281    C    0.23250   0.68440   0.00000   1.000
    C282    C    0.23250   0.31560   0.00000   1.000
    C283    C    0.76750   0.31560   0.00000   1.000
    C284    C    0.68440   0.50000   0.73250   1.000
    C285    C    0.68440   0.50000   0.26750   1.000
    C286    C    0.31560   0.50000   0.26750   1.000
    C287    C    0.31560   0.50000   0.73250   1.000
loop_
    _geom_bond_atom_site_label_1
    _geom_bond_atom_site_label_2
    _geom_bond_distance
    _geom_bond_site_symmetry_2
    _ccdc_geom_bond_type
    C1     C158      1.50472      .   S
    C1     O26       1.25634      .   S
    C1     O9        1.25634      .   S
    O85    C148      1.25634      .   S
    O25    C112      1.25634      .   S
    O24    C111      1.25634      .   S
    O23    C110      1.25634      .   S
    O22    C113      1.25634      .   S
    O87    C146      1.25634      .   S
    C112   O11       1.25634      .   S
    C112   C160      1.50472      .   S
    C113   O10       1.25634      .   S
    C113   C159      1.50472      .   S
    O86    C147      1.25634      .   S
    C110   C162      1.50472      .   S
    C110   O13       1.25634      .   S
    C162   C206      1.36224      .   S
    C162   C209      1.36224      .   S
    O12    C111      1.25634      .   S
    C111   C161      1.50472      .   S
    O96    C149      1.25634      .   S
    C192   C149      1.50472      .   S
    C192   C268      1.36224      .   S
    C192   C280      1.36224      .   S
    C193   C148      1.50472      .   S
    C193   C283      1.36224      .   S
    C193   C269      1.36224      .   S
    C194   C147      1.50472      .   S
    C194   C282      1.36224      .   S
    C194   C270      1.36224      .   S
    C195   C281      1.36224      .   S
    C195   C146      1.50472      .   S
    C195   C271      1.36224      .   S
    C203   C282      1.40812      .   S
    C203   C159      1.36224      .   S
    C204   C281      1.40812      .   S
    C204   C160      1.36224      .   S
    C205   C280      1.40812      .   S
    C205   C161      1.36224      .   S
    C206   C283      1.40812      .   S
    O99    C148      1.25634      .   S
    O98    C147      1.25634      .   S
    O97    C146      1.25634      .   S
    C211   C271      1.40812      .   S
    C211   C160      1.36224      .   S
    C149   O84       1.25634      .   S
    C210   C268      1.40812      .   S
    C210   C161      1.36224      .   S
    C209   C269      1.40812      .   S
    C270   C208      1.40812      .   S
    C208   C159      1.36224      .   S
    O94    C150      1.25634      .   S
    O95    C151      1.25634      .   S
    O20    C114      1.25634      .   S
    O80    C145      1.25634      .   S
    O81    C144      1.25634      .   S
    O21    C117      1.25634      .   S
    O7     C108      1.25634      .   S
    O0     C109      1.25634      .   S
    C108   O28       1.25634      .   S
    C108   C156      1.50472      .   S
    C109   O27       1.25634      .   S
    C109   C2        1.50472      .   S
    C144   O102      1.25634      .   S
    C144   C189      1.50472      .   S
    C145   O101      1.25634      .   S
    C145   C188      1.50472      .   S
    C150   O91       1.25634      .   S
    C150   C199      1.50472      .   S
    C114   O17       1.25634      .   S
    C114   C166      1.50472      .   S
    C117   O14       1.25634      .   S
    C117   C163      1.50472      .   S
    C151   O88       1.25634      .   S
    C151   C196      1.50472      .   S
    C278   C199      1.36224      .   S
    C278   C249      1.40812      .   S
    C6     C166      1.36224      .   S
    C6     C225      1.40812      .   S
    C207   C163      1.36224      .   S
    C207   C226      1.40812      .   S
    C279   C196      1.36224      .   S
    C279   C250      1.40812      .   S
    C265   C189      1.36224      .   S
    C265   C236      1.40812      .   S
    C200   C156      1.36224      .   S
    C200   C260      1.40812      .   S
    C264   C188      1.36224      .   S
    C264   C239      1.40812      .   S
    C3     C2        1.36224      .   S
    C3     C263      1.40812      .   S
    C166   C155      1.36224      .   S
    C163   C152      1.36224      .   S
    C2     C213      1.36224      .   S
    C199   C275      1.36224      .   S
    C196   C272      1.36224      .   S
    C156   C214      1.36224      .   S
    C188   C285      1.36224      .   S
    C189   C286      1.36224      .   S
    C260   C179      1.36224      .   S
    C226   C174      1.36224      .   S
    C263   C178      1.36224      .   S
    C225   C173      1.36224      .   S
    C249   C185      1.36224      .   S
    C250   C186      1.36224      .   S
    C239   C169      1.36224      .   S
    C236   C104      1.36224      .   S
    C155   C228      1.40812      .   S
    C214   C243      1.40812      .   S
    C213   C242      1.40812      .   S
    C152   C229      1.40812      .   S
    C286   C219      1.40812      .   S
    C275   C252      1.40812      .   S
    C272   C253      1.40812      .   S
    C285   C218      1.40812      .   S
    C169   C218      1.36224      .   S
    C169   C119      1.50472      .   S
    C186   C253      1.36224      .   S
    C186   C139      1.50472      .   S
    C185   C252      1.36224      .   S
    C185   C140      1.50472      .   S
    C104   C219      1.36224      .   S
    C104   C118      1.50472      .   S
    C179   C243      1.36224      .   S
    C179   C130      1.50472      .   S
    C173   C228      1.36224      .   S
    C173   C128      1.50472      .   S
    C178   C242      1.36224      .   S
    C178   C131      1.50472      .   S
    C174   C229      1.36224      .   S
    C174   C127      1.50472      .   S
    O63    C140      1.25634      .   S
    O53    C119      1.25634      .   S
    O74    C130      1.25634      .   S
    O40    C127      1.25634      .   S
    O39    C128      1.25634      .   S
    O50    C118      1.25634      .   S
    O64    C139      1.25634      .   S
    O77    C131      1.25634      .   S
    C118   O33       1.25634      .   S
    C140   O66       1.25634      .   S
    C127   O43       1.25634      .   S
    C128   O42       1.25634      .   S
    C119   O32       1.25634      .   S
    C130   O57       1.25634      .   S
    C139   O67       1.25634      .   S
    C131   O56       1.25634      .   S
    C220   C258      1.40812      .   S
    C220   C105      1.36224      .   S
    C221   C257      1.40812      .   S
    C221   C106      1.36224      .   S
    C222   C256      1.40812      .   S
    C222   C170      1.36224      .   S
    C223   C259      1.40812      .   S
    C223   C171      1.36224      .   S
    C232   C246      1.40812      .   S
    C232   C105      1.36224      .   S
    C233   C245      1.40812      .   S
    C233   C171      1.36224      .   S
    C124   C106      1.50472      .   S
    C124   O35       1.25634      .   S
    C124   O49       1.25634      .   S
    C246   C182      1.36224      .   S
    C256   C180      1.36224      .   S
    C257   C183      1.36224      .   S
    C183   C247      1.36224      .   S
    C183   C134      1.50472      .   S
    C182   C258      1.36224      .   S
    C182   C135      1.50472      .   S
    C181   C259      1.36224      .   S
    C181   C245      1.36224      .   S
    C181   C136      1.50472      .   S
    C247   C235      1.40812      .   S
    C105   C125      1.50472      .   S
    C180   C244      1.36224      .   S
    C180   C137      1.50472      .   S
    C244   C234      1.40812      .   S
    C235   C106      1.36224      .   S
    C171   C122      1.50472      .   S
    C234   C170      1.36224      .   S
    C170   C123      1.50472      .   S
    O59    C136      1.25634      .   S
    O34    C125      1.25634      .   S
    O36    C123      1.25634      .   S
    O37    C122      1.25634      .   S
    C122   O47       1.25634      .   S
    O46    C125      1.25634      .   S
    C123   O48       1.25634      .   S
    O72    C135      1.25634      .   S
    O58    C137      1.25634      .   S
    O60    C135      1.25634      .   S
    O61    C134      1.25634      .   S
    C137   O70       1.25634      .   S
    C136   O73       1.25634      .   S
    C134   O71       1.25634      .   S
    O44    C126      1.25634      .   S
    O55    C132      1.25634      .   S
    O54    C133      1.25634      .   S
    O45    C129      1.25634      .   S
    O69    C141      1.25634      .   S
    O68    C138      1.25634      .   S
    O31    C120      1.25634      .   S
    O30    C121      1.25634      .   S
    C120   O52       1.25634      .   S
    C120   C168      1.50472      .   S
    C138   O65       1.25634      .   S
    C138   C187      1.50472      .   S
    C141   O62       1.25634      .   S
    C141   C184      1.50472      .   S
    C121   O51       1.25634      .   S
    C121   C167      1.50472      .   S
    C132   O76       1.25634      .   S
    C132   C177      1.50472      .   S
    C129   O38       1.25634      .   S
    C129   C172      1.50472      .   S
    C126   O41       1.25634      .   S
    C126   C175      1.50472      .   S
    C133   O75       1.25634      .   S
    C133   C176      1.50472      .   S
    C231   C172      1.36224      .   S
    C231   C154      1.40812      .   S
    C216   C167      1.36224      .   S
    C216   C287      1.40812      .   S
    C230   C175      1.36224      .   S
    C230   C153      1.40812      .   S
    C217   C168      1.36224      .   S
    C217   C284      1.40812      .   S
    C240   C176      1.36224      .   S
    C240   C215      1.40812      .   S
    C241   C177      1.36224      .   S
    C241   C212      1.40812      .   S
    C254   C187      1.36224      .   S
    C254   C273      1.40812      .   S
    C255   C184      1.36224      .   S
    C255   C274      1.40812      .   S
    C167   C237      1.36224      .   S
    C187   C251      1.36224      .   S
    C168   C238      1.36224      .   S
    C172   C224      1.36224      .   S
    C175   C227      1.36224      .   S
    C176   C261      1.36224      .   S
    C177   C262      1.36224      .   S
    C184   C248      1.36224      .   S
    C274   C198      1.36224      .   S
    C273   C197      1.36224      .   S
    C215   C157      1.36224      .   S
    C284   C191      1.36224      .   S
    C287   C190      1.36224      .   S
    C212   C158      1.36224      .   S
    C153   C164      1.36224      .   S
    C154   C165      1.36224      .   S
    C224   C5        1.40812      .   S
    C227   C4        1.40812      .   S
    C261   C201      1.40812      .   S
    C251   C276      1.40812      .   S
    C262   C202      1.40812      .   S
    C248   C277      1.40812      .   S
    C238   C267      1.40812      .   S
    C237   C266      1.40812      .   S
    C190   C266      1.36224      .   S
    C190   C143      1.50472      .   S
    C191   C267      1.36224      .   S
    C191   C142      1.50472      .   S
    C197   C276      1.36224      .   S
    C197   C79       1.50472      .   S
    C198   C277      1.36224      .   S
    C198   C78       1.50472      .   S
    C157   C201      1.36224      .   S
    C157   C107      1.50472      .   S
    C158   C202      1.36224      .   S
    C165   C5        1.36224      .   S
    C165   C115      1.50472      .   S
    C164   C4        1.36224      .   S
    C164   C116      1.50472      .   S
    O16    C115      1.25634      .   S
    O15    C116      1.25634      .   S
    O29    C107      1.25634      .   S
    O90    C78       1.25634      .   S
    O89    C79       1.25634      .   S
    O103   C143      1.25634      .   S
    O100   C142      1.25634      .   S
    C107   O8        1.25634      .   S
    C115   O19       1.25634      .   S
    C116   O18       1.25634      .   S
    C78    O93       1.25634      .   S
    C142   O83       1.25634      .   S
    C143   O82       1.25634      .   S
    C79    O92       1.25634      .   S
