# CIF file generated by openbabel 2.4.90, see http://openbabel.sf.net
data_I
_chemical_name_common ''
_cell_length_a 20.7004
_cell_length_b 20.7004
_cell_length_c 20.7004
_cell_angle_alpha 90
_cell_angle_beta 90
_cell_angle_gamma 90
_space_group_name_H-M_alt 'P 1'
_space_group_name_Hall 'P 1'
loop_
    _symmetry_equiv_pos_as_xyz
    x,y,z
loop_
    _atom_site_label
    _atom_site_type_symbol
    _atom_site_fract_x
    _atom_site_fract_y
    _atom_site_fract_z
    _atom_site_occupancy
    O0      O    0.05610   0.94390   0.94390   1.000
    Zr1     Zr   0.88011   0.00000   0.00000   1.000
    Zr2     Zr   0.00000   0.11989   0.00000   1.000
    Zr3     Zr   0.00000   0.88011   0.00000   1.000
    Zr4     Zr   0.00000   0.00000   0.11989   1.000
    Zr5     Zr   0.00000   0.00000   0.88011   1.000
    Zr6     Zr   0.11989   0.50000   0.50000   1.000
    Zr7     Zr   0.88011   0.50000   0.50000   1.000
    Zr8     Zr   0.00000   0.61989   0.50000   1.000
    Zr9     Zr   0.00000   0.38011   0.50000   1.000
    Zr10    Zr   0.00000   0.50000   0.61989   1.000
    Zr11    Zr   0.00000   0.50000   0.38011   1.000
    Zr12    Zr   0.61989   0.00000   0.50000   1.000
    Zr13    Zr   0.11989   0.00000   0.00000   1.000
    Zr14    Zr   0.38011   0.00000   0.50000   1.000
    Zr15    Zr   0.50000   0.11989   0.50000   1.000
    Zr16    Zr   0.50000   0.88011   0.50000   1.000
    Zr17    Zr   0.50000   0.00000   0.61989   1.000
    Zr18    Zr   0.50000   0.00000   0.38011   1.000
    Zr19    Zr   0.61989   0.50000   0.00000   1.000
    Zr20    Zr   0.38011   0.50000   0.00000   1.000
    Zr21    Zr   0.50000   0.61989   0.00000   1.000
    Zr22    Zr   0.50000   0.38011   0.00000   1.000
    Zr23    Zr   0.50000   0.50000   0.11989   1.000
    Zr24    Zr   0.50000   0.50000   0.88011   1.000
    O25     O    0.05610   0.94390   0.05610   1.000
    O26     O    0.94390   0.94390   0.94390   1.000
    O27     O    0.05610   0.05610   0.94390   1.000
    O28     O    0.05610   0.44390   0.44390   1.000
    O29     O    0.94390   0.05610   0.94390   1.000
    O30     O    0.94390   0.94390   0.05610   1.000
    O31     O    0.05610   0.05610   0.05610   1.000
    O32     O    0.94390   0.05610   0.05610   1.000
    O33     O    0.94390   0.55610   0.44390   1.000
    O34     O    0.94390   0.44390   0.55610   1.000
    O35     O    0.05610   0.55610   0.55610   1.000
    O36     O    0.94390   0.55610   0.55610   1.000
    O37     O    0.05610   0.44390   0.55610   1.000
    O38     O    0.94390   0.44390   0.44390   1.000
    O39     O    0.05610   0.55610   0.44390   1.000
    O40     O    0.55610   0.94390   0.44390   1.000
    O41     O    0.44390   0.05610   0.44390   1.000
    O42     O    0.44390   0.94390   0.55610   1.000
    O43     O    0.55610   0.05610   0.55610   1.000
    O44     O    0.44390   0.05610   0.55610   1.000
    O45     O    0.55610   0.94390   0.55610   1.000
    O46     O    0.44390   0.94390   0.44390   1.000
    O47     O    0.55610   0.05610   0.44390   1.000
    O48     O    0.55610   0.44390   0.94390   1.000
    O49     O    0.44390   0.55610   0.94390   1.000
    O50     O    0.44390   0.44390   0.05610   1.000
    O51     O    0.55610   0.55610   0.05610   1.000
    O52     O    0.44390   0.55610   0.05610   1.000
    O53     O    0.55610   0.44390   0.05610   1.000
    O54     O    0.44390   0.44390   0.94390   1.000
    O55     O    0.55610   0.55610   0.94390   1.000
loop_
    _geom_bond_atom_site_label_1
    _geom_bond_atom_site_label_2
    _geom_bond_distance
    _geom_bond_site_symmetry_2
    _ccdc_geom_bond_type
    O0     Zr13      2.10734  1_566   S
    O0     Zr5       2.10734  1_565   S
    Zr13   O25       2.10734  1_545   S
    Zr13   O27       2.10734  1_554   S
    Zr1    O30       2.10734  1_545   S
    Zr1    O29       2.10734  1_554   S
    Zr1    O26       2.10734  1_544   S
    Zr2    O32       2.10734  1_455   S
    Zr2    O31       2.10734      .   S
    Zr3    O26       2.10734  1_454   S
    Zr19   O55       2.10734  1_554   S
    Zr19   O48       2.10734  1_554   S
    Zr22   O53       2.10734      .   S
    Zr22   O54       2.10734  1_554   S
    Zr22   O48       2.10734  1_554   S
    Zr21   O51       2.10734      .   S
    Zr21   O55       2.10734  1_554   S
    Zr21   O49       2.10734  1_554   S
    Zr20   O50       2.10734      .   S
    Zr20   O52       2.10734      .   S
    Zr20   O54       2.10734  1_554   S
    Zr20   O49       2.10734  1_554   S
    O50    Zr23      2.10734      .   S
    O51    Zr23      2.10734      .   S
    O52    Zr23      2.10734      .   S
    O53    Zr23      2.10734      .   S
    O25    Zr4       2.10734  1_565   S
    O32    Zr4       2.10734  1_655   S
    O31    Zr4       2.10734      .   S
    O30    Zr4       2.10734  1_665   S
    Zr18   O40       2.10734  1_545   S
    Zr18   O47       2.10734      .   S
    Zr18   O46       2.10734  1_545   S
    Zr11   O33       2.10734  1_455   S
    Zr11   O38       2.10734  1_455   S
    O40    Zr12      2.10734  1_565   S
    O41    Zr15      2.10734      .   S
    O41    Zr14      2.10734      .   S
    O28    Zr6       2.10734      .   S
    O28    Zr9       2.10734      .   S
    O33    Zr8       2.10734  1_655   S
    O47    Zr12      2.10734      .   S
    O46    Zr14      2.10734  1_565   S
    O38    Zr9       2.10734  1_655   S
    O39    Zr6       2.10734      .   S
    O39    Zr8       2.10734      .   S
    Zr15   O43       2.10734      .   S
    Zr14   O42       2.10734  1_545   S
    Zr14   O44       2.10734      .   S
    Zr12   O45       2.10734  1_545   S
    Zr6    O37       2.10734      .   S
    Zr8    O35       2.10734      .   S
    Zr8    O36       2.10734  1_455   S
    Zr9    O34       2.10734  1_455   S
    Zr9    O37       2.10734      .   S
    O34    Zr10      2.10734  1_655   S
    O35    Zr10      2.10734      .   S
    O36    Zr10      2.10734  1_655   S
    O42    Zr17      2.10734  1_565   S
    O43    Zr17      2.10734      .   S
    O44    Zr17      2.10734      .   S
    O45    Zr17      2.10734  1_565   S
    Zr5    O29       2.10734  1_455   S
    Zr5    O27       2.10734      .   S
    O0     Zr3       2.10734  1_556   S
    O29    Zr2       2.10734  1_656   S
    O30    Zr3       2.10734  1_655   S
    O31    Zr13      2.10734      .   S
    O32    Zr1       2.10734      .   S
    O25    Zr3       2.10734      .   S
    O26    Zr5       2.10734  1_665   S
    O27    Zr2       2.10734  1_556   S
    O28    Zr11      2.10734      .   S
    O33    Zr7       2.10734      .   S
    O34    Zr7       2.10734      .   S
    O35    Zr6       2.10734      .   S
    O36    Zr7       2.10734      .   S
    O37    Zr10      2.10734      .   S
    O38    Zr7       2.10734      .   S
    O39    Zr11      2.10734      .   S
    O40    Zr16      2.10734      .   S
    O41    Zr18      2.10734      .   S
    O42    Zr16      2.10734      .   S
    O43    Zr12      2.10734      .   S
    O44    Zr15      2.10734      .   S
    O45    Zr16      2.10734      .   S
    O46    Zr16      2.10734      .   S
    O47    Zr15      2.10734      .   S
    O48    Zr24      2.10734      .   S
    O49    Zr24      2.10734      .   S
    O50    Zr22      2.10734      .   S
    O51    Zr19      2.10734      .   S
    O52    Zr21      2.10734      .   S
    O53    Zr19      2.10734      .   S
    O54    Zr24      2.10734      .   S
    O55    Zr24      2.10734      .   S
