# CIF file generated by openbabel 2.4.90, see http://openbabel.sf.net
data_I
_chemical_name_common ''
_cell_length_a 20.7004
_cell_length_b 20.7004
_cell_length_c 20.7004
_cell_angle_alpha 90
_cell_angle_beta 90
_cell_angle_gamma 90
_space_group_name_H-M_alt 'P 1'
_space_group_name_Hall 'P 1'
loop_
    _symmetry_equiv_pos_as_xyz
    x,y,z
loop_
    _atom_site_label
    _atom_site_type_symbol
    _atom_site_fract_x
    _atom_site_fract_y
    _atom_site_fract_z
    _atom_site_occupancy
    N0      N    0.75000   0.00000   0.25000   1.000
    N1      N    0.75000   0.00000   0.75000   1.000
    N2      N    0.25000   0.00000   0.75000   1.000
    N3      N    0.25000   0.25000   0.00000   1.000
    N4      N    0.25000   0.75000   0.00000   1.000
    N5      N    0.75000   0.75000   0.00000   1.000
    N6      N    0.75000   0.25000   0.00000   1.000
    N7      N    0.00000   0.25000   0.25000   1.000
    N8      N    0.00000   0.25000   0.75000   1.000
    N9      N    0.00000   0.75000   0.75000   1.000
    N10     N    0.00000   0.75000   0.25000   1.000
    N11     N    0.25000   0.00000   0.25000   1.000
    N12     N    0.25000   0.75000   0.50000   1.000
    N13     N    0.75000   0.75000   0.50000   1.000
    N14     N    0.75000   0.25000   0.50000   1.000
    N15     N    0.25000   0.25000   0.50000   1.000
    N16     N    0.25000   0.50000   0.25000   1.000
    N17     N    0.25000   0.50000   0.75000   1.000
    N18     N    0.75000   0.50000   0.75000   1.000
    N19     N    0.75000   0.50000   0.25000   1.000
    N20     N    0.50000   0.25000   0.75000   1.000
    N21     N    0.50000   0.25000   0.25000   1.000
    N22     N    0.50000   0.75000   0.25000   1.000
    N23     N    0.50000   0.75000   0.75000   1.000
    Zr24    Zr   0.00000   0.00000   0.00000   1.000
    Zr25    Zr   0.50000   0.00000   0.50000   1.000
    Zr26    Zr   0.00000   0.50000   0.50000   1.000
    Zr27    Zr   0.50000   0.50000   0.00000   1.000
    O28     O    0.50000   0.91340   0.58660   1.000
    O29     O    0.50000   0.58660   0.91340   1.000
    O30     O    0.41340   0.91340   0.50000   1.000
    O31     O    0.08660   0.58660   0.50000   1.000
    O32     O    0.00000   0.58660   0.58660   1.000
    O33     O    0.00000   0.91340   0.91340   1.000
    O34     O    0.50000   0.08660   0.58660   1.000
    O35     O    0.50000   0.41340   0.91340   1.000
    O36     O    0.50000   0.91340   0.41340   1.000
    O37     O    0.50000   0.58660   0.08660   1.000
    O38     O    0.58660   0.00000   0.58660   1.000
    O39     O    0.58660   0.91340   0.50000   1.000
    O40     O    0.58660   0.08660   0.50000   1.000
    O41     O    0.50000   0.08660   0.41340   1.000
    O42     O    0.41340   0.08660   0.50000   1.000
    O43     O    0.41340   0.00000   0.41340   1.000
    O44     O    0.41340   0.00000   0.58660   1.000
    O45     O    0.58660   0.00000   0.41340   1.000
    O46     O    0.91340   0.58660   0.50000   1.000
    O47     O    0.91340   0.41340   0.50000   1.000
    O48     O    0.00000   0.41340   0.41340   1.000
    O49     O    0.08660   0.50000   0.58660   1.000
    O50     O    0.00000   0.41340   0.58660   1.000
    O51     O    0.08660   0.41340   0.50000   1.000
    O52     O    0.00000   0.58660   0.41340   1.000
    O53     O    0.08660   0.50000   0.41340   1.000
    O54     O    0.91340   0.50000   0.58660   1.000
    O55     O    0.91340   0.50000   0.41340   1.000
    O56     O    0.91340   0.00000   0.91340   1.000
    O57     O    0.91340   0.91340   0.00000   1.000
    O58     O    0.58660   0.58660   0.00000   1.000
    O59     O    0.08660   0.91340   0.00000   1.000
    O60     O    0.41340   0.58660   0.00000   1.000
    O61     O    0.00000   0.08660   0.08660   1.000
    O62     O    0.91340   0.08660   0.00000   1.000
    O63     O    0.58660   0.41340   0.00000   1.000
    O64     O    0.41340   0.50000   0.91340   1.000
    O65     O    0.50000   0.41340   0.08660   1.000
    O66     O    0.00000   0.08660   0.91340   1.000
    O67     O    0.00000   0.91340   0.08660   1.000
    O68     O    0.08660   0.00000   0.08660   1.000
    O69     O    0.08660   0.00000   0.91340   1.000
    O70     O    0.08660   0.08660   0.00000   1.000
    O71     O    0.91340   0.00000   0.08660   1.000
    O72     O    0.41340   0.50000   0.08660   1.000
    O73     O    0.41340   0.41340   0.00000   1.000
    O74     O    0.58660   0.50000   0.91340   1.000
    O75     O    0.58660   0.50000   0.08660   1.000
loop_
    _geom_bond_atom_site_label_1
    _geom_bond_atom_site_label_2
    _geom_bond_distance
    _geom_bond_site_symmetry_2
    _ccdc_geom_bond_type
    N23    O28       4.78339      .   S
    Zr25   O28       2.53531  1_545   S
    N23    O29       4.78339      .   S
    Zr27   O29       2.53531  1_554   S
    N12    O30       4.78339      .   S
    Zr25   O30       2.53531  1_545   S
    N12    O31       4.78339      .   S
    Zr26   O31       2.53531      .   S
    N9     O32       4.78339      .   S
    Zr26   O32       2.53531      .   S
    N9     O33       4.78339      .   S
    Zr24   O33       2.53531  1_544   S
    N20    O34       4.78339      .   S
    Zr25   O34       2.53531      .   S
    N20    O35       4.78339      .   S
    Zr27   O35       2.53531  1_554   S
    N22    O36       4.78339      .   S
    Zr25   O36       2.53531  1_545   S
    N22    O37       4.78339      .   S
    Zr27   O37       2.53531      .   S
    Zr25   O38       2.53531      .   S
    N1     O38       4.78339      .   S
    Zr25   O39       2.53531  1_545   S
    N13    O39       4.78339      .   S
    Zr25   O40       2.53531      .   S
    N14    O40       4.78339      .   S
    Zr25   O41       2.53531      .   S
    N21    O41       4.78339      .   S
    Zr25   O42       2.53531      .   S
    N15    O42       4.78339      .   S
    Zr25   O43       2.53531      .   S
    N11    O43       4.78339      .   S
    Zr25   O44       2.53531      .   S
    N2     O44       4.78339      .   S
    Zr25   O45       2.53531      .   S
    N0     O45       4.78339      .   S
    Zr26   O46       2.53531  1_455   S
    N13    O46       4.78339      .   S
    Zr26   O47       2.53531  1_455   S
    N14    O47       4.78339      .   S
    Zr26   O48       2.53531      .   S
    N7     O48       4.78339      .   S
    Zr26   O49       2.53531      .   S
    N17    O49       4.78339      .   S
    Zr26   O50       2.53531      .   S
    N8     O50       4.78339      .   S
    Zr26   O51       2.53531      .   S
    N15    O51       4.78339      .   S
    Zr26   O52       2.53531      .   S
    N10    O52       4.78339      .   S
    Zr26   O53       2.53531      .   S
    N16    O53       4.78339      .   S
    Zr26   O54       2.53531  1_455   S
    N18    O54       4.78339      .   S
    Zr26   O55       2.53531  1_455   S
    N19    O55       4.78339      .   S
    N1     O56       4.78339      .   S
    Zr24   O56       2.53531  1_454   S
    N5     O57       4.78339      .   S
    Zr24   O57       2.53531  1_445   S
    N5     O58       4.78339      .   S
    Zr27   O58       2.53531      .   S
    N4     O59       4.78339      .   S
    Zr24   O59       2.53531  1_545   S
    N4     O60       4.78339      .   S
    Zr27   O60       2.53531      .   S
    N7     O61       4.78339      .   S
    Zr24   O61       2.53531      .   S
    N6     O62       4.78339      .   S
    Zr24   O62       2.53531  1_455   S
    N6     O63       4.78339      .   S
    Zr27   O63       2.53531      .   S
    N17    O64       4.78339      .   S
    Zr27   O64       2.53531  1_554   S
    N21    O65       4.78339      .   S
    Zr27   O65       2.53531      .   S
    N8     O66       4.78339      .   S
    Zr24   O66       2.53531  1_554   S
    Zr24   O67       2.53531  1_545   S
    N10    O67       4.78339      .   S
    Zr24   O68       2.53531      .   S
    N11    O68       4.78339      .   S
    Zr24   O69       2.53531  1_554   S
    N2     O69       4.78339      .   S
    Zr24   O70       2.53531      .   S
    N3     O70       4.78339      .   S
    Zr24   O71       2.53531  1_455   S
    N0     O71       4.78339      .   S
    N16    O72       4.78339      .   S
    Zr27   O72       2.53531      .   S
    N3     O73       4.78339      .   S
    Zr27   O73       2.53531      .   S
    N18    O74       4.78339      .   S
    Zr27   O74       2.53531  1_554   S
    N19    O75       4.78339      .   S
    Zr27   O75       2.53531      .   S
