# CIF file generated by openbabel 2.4.90, see http://openbabel.sf.net
data_I
_chemical_name_common ''
_cell_length_a 20.7004
_cell_length_b 20.7004
_cell_length_c 20.7004
_cell_angle_alpha 90
_cell_angle_beta 90
_cell_angle_gamma 90
_space_group_name_H-M_alt 'P 1'
_space_group_name_Hall 'P 1'
loop_
    _symmetry_equiv_pos_as_xyz
    x,y,z
loop_
    _atom_site_label
    _atom_site_type_symbol
    _atom_site_fract_x
    _atom_site_fract_y
    _atom_site_fract_z
    _atom_site_occupancy
    N0      N    0.75000   0.00000   0.25000   1.000
    N1      N    0.75000   0.00000   0.75000   1.000
    N2      N    0.25000   0.00000   0.75000   1.000
    N3      N    0.25000   0.25000   0.00000   1.000
    N4      N    0.25000   0.75000   0.00000   1.000
    N5      N    0.75000   0.75000   0.00000   1.000
    N6      N    0.75000   0.25000   0.00000   1.000
    N7      N    0.00000   0.25000   0.25000   1.000
    N8      N    0.00000   0.25000   0.75000   1.000
    N9      N    0.00000   0.75000   0.75000   1.000
    N10     N    0.00000   0.75000   0.25000   1.000
    N11     N    0.25000   0.00000   0.25000   1.000
    N12     N    0.25000   0.75000   0.50000   1.000
    N13     N    0.75000   0.75000   0.50000   1.000
    N14     N    0.75000   0.25000   0.50000   1.000
    N15     N    0.25000   0.25000   0.50000   1.000
    N16     N    0.25000   0.50000   0.25000   1.000
    N17     N    0.25000   0.50000   0.75000   1.000
    N18     N    0.75000   0.50000   0.75000   1.000
    N19     N    0.75000   0.50000   0.25000   1.000
    N20     N    0.50000   0.25000   0.75000   1.000
    N21     N    0.50000   0.25000   0.25000   1.000
    N22     N    0.50000   0.75000   0.25000   1.000
    N23     N    0.50000   0.75000   0.75000   1.000
    Zr24    Zr   0.00000   0.00000   0.00000   1.000
    O25     O    0.00000   0.07441   0.90121   1.000
    O26     O    0.00000   0.92559   0.90121   1.000
    O27     O    0.07441   0.00000   0.90121   1.000
    O28     O    0.92559   0.00000   0.90121   1.000
    O29     O    0.00000   0.07441   0.09879   1.000
    O30     O    0.07441   0.00000   0.09879   1.000
    O31     O    0.00000   0.92559   0.09879   1.000
    O32     O    0.92559   0.00000   0.09879   1.000
    O33     O    0.92559   0.90121   0.00000   1.000
    O34     O    0.07441   0.90121   0.00000   1.000
    O35     O    0.00000   0.90120   0.92559   1.000
    O36     O    0.00000   0.90121   0.07441   1.000
    O37     O    0.00000   0.09879   0.07441   1.000
    O38     O    0.92559   0.09879   0.00000   1.000
    O39     O    0.00000   0.09880   0.92559   1.000
    O40     O    0.07441   0.09879   0.00000   1.000
    O41     O    0.90121   0.07441   0.00000   1.000
    O42     O    0.90120   0.92559   0.00000   1.000
    O43     O    0.90120   0.00000   0.92559   1.000
    O44     O    0.90121   0.00000   0.07441   1.000
    O45     O    0.09880   0.92559   0.00000   1.000
    O46     O    0.09879   0.07441   0.00000   1.000
    O47     O    0.09880   0.00000   0.92559   1.000
    O48     O    0.09879   0.00000   0.07441   1.000
    Zr49    Zr   0.50000   0.00000   0.50000   1.000
    O50     O    0.59880   0.07441   0.50000   1.000
    O51     O    0.59879   0.92559   0.50000   1.000
    O52     O    0.59880   0.00000   0.57441   1.000
    O53     O    0.59880   0.00000   0.42559   1.000
    O54     O    0.57441   0.90121   0.50000   1.000
    O55     O    0.50000   0.90121   0.42559   1.000
    O56     O    0.50000   0.90121   0.57441   1.000
    O57     O    0.42559   0.90121   0.50000   1.000
    O58     O    0.50000   0.09880   0.57441   1.000
    O59     O    0.57441   0.09879   0.50000   1.000
    O60     O    0.50000   0.09879   0.42559   1.000
    O61     O    0.42559   0.09880   0.50000   1.000
    O62     O    0.40120   0.92559   0.50000   1.000
    O63     O    0.40121   0.00000   0.42559   1.000
    O64     O    0.40120   0.07441   0.50000   1.000
    O65     O    0.40120   0.00000   0.57441   1.000
    O66     O    0.50000   0.92559   0.59880   1.000
    O67     O    0.42559   0.00000   0.59880   1.000
    O68     O    0.50000   0.07441   0.59880   1.000
    O69     O    0.57441   0.00000   0.59880   1.000
    O70     O    0.50000   0.92559   0.40121   1.000
    O71     O    0.50000   0.07441   0.40121   1.000
    O72     O    0.57441   0.00000   0.40121   1.000
    O73     O    0.42559   0.00000   0.40121   1.000
    Zr74    Zr   0.00000   0.50000   0.50000   1.000
    O75     O    0.07441   0.50000   0.40121   1.000
    O76     O    0.92559   0.50000   0.40121   1.000
    O77     O    0.00000   0.42559   0.40121   1.000
    O78     O    0.00000   0.57441   0.40121   1.000
    O79     O    0.00000   0.42559   0.59880   1.000
    O80     O    0.92559   0.50000   0.59880   1.000
    O81     O    0.07441   0.50000   0.59880   1.000
    O82     O    0.00000   0.57441   0.59880   1.000
    O83     O    0.07441   0.40120   0.50000   1.000
    O84     O    0.00000   0.40120   0.57441   1.000
    O85     O    0.92559   0.40120   0.50000   1.000
    O86     O    0.00000   0.40121   0.42559   1.000
    O87     O    0.00000   0.59880   0.42559   1.000
    O88     O    0.07441   0.59880   0.50000   1.000
    O89     O    0.00000   0.59880   0.57441   1.000
    O90     O    0.92559   0.59880   0.50000   1.000
    O91     O    0.90121   0.50000   0.42559   1.000
    O92     O    0.90121   0.50000   0.57441   1.000
    O93     O    0.90121   0.42559   0.50000   1.000
    O94     O    0.90120   0.57441   0.50000   1.000
    O95     O    0.09880   0.50000   0.57441   1.000
    O96     O    0.09880   0.50000   0.42559   1.000
    O97     O    0.09880   0.42559   0.50000   1.000
    O98     O    0.09880   0.57441   0.50000   1.000
    Zr99    Zr   0.50000   0.50000   0.00000   1.000
    O100    O    0.42559   0.50000   0.09879   1.000
    O101    O    0.57441   0.50000   0.09879   1.000
    O102    O    0.50000   0.42559   0.09879   1.000
    O103    O    0.50000   0.57441   0.09879   1.000
    O104    O    0.57441   0.50000   0.90121   1.000
    O105    O    0.50000   0.42559   0.90121   1.000
    O106    O    0.42559   0.50000   0.90121   1.000
    O107    O    0.50000   0.57441   0.90121   1.000
    O108    O    0.59880   0.57441   0.00000   1.000
    O109    O    0.59880   0.50000   0.07441   1.000
    O110    O    0.59880   0.42559   0.00000   1.000
    O111    O    0.59879   0.50000   0.92559   1.000
    O112    O    0.50000   0.59880   0.07441   1.000
    O113    O    0.42559   0.59880   0.00000   1.000
    O114    O    0.50000   0.59879   0.92559   1.000
    O115    O    0.57441   0.59880   0.00000   1.000
    O116    O    0.50000   0.40120   0.07441   1.000
    O117    O    0.50000   0.40121   0.92559   1.000
    O118    O    0.57441   0.40121   0.00000   1.000
    O119    O    0.42559   0.40121   0.00000   1.000
    O120    O    0.40120   0.50000   0.07441   1.000
    O121    O    0.40120   0.50000   0.92559   1.000
    O122    O    0.40121   0.42559   0.00000   1.000
    O123    O    0.40120   0.57441   0.00000   1.000
loop_
    _geom_bond_atom_site_label_1
    _geom_bond_atom_site_label_2
    _geom_bond_distance
    _geom_bond_site_symmetry_2
    _ccdc_geom_bond_type
    Zr24   O25       2.56030  1_554   S
    N8     O25       4.79669      .   S
    Zr24   O26       2.56030  1_544   S
    N9     O26       4.79669      .   S
    Zr24   O27       2.56030  1_554   S
    N2     O27       4.79669      .   S
    Zr24   O28       2.56030  1_454   S
    N1     O28       4.79669      .   S
    Zr24   O29       2.56030      .   S
    N7     O29       4.79669      .   S
    Zr24   O30       2.56030      .   S
    N11    O30       4.79669      .   S
    Zr24   O31       2.56030  1_545   S
    N10    O31       4.79669      .   S
    Zr24   O32       2.56030  1_455   S
    N0     O32       4.79669      .   S
    Zr24   O33       2.56030  1_445   S
    N5     O33       4.79669      .   S
    Zr24   O34       2.56030  1_545   S
    N4     O34       4.79669      .   S
    Zr24   O35       2.56030  1_544   S
    N9     O35       4.79669      .   S
    Zr24   O36       2.56030  1_545   S
    N10    O36       4.79669      .   S
    Zr24   O37       2.56030      .   S
    N7     O37       4.79669      .   S
    Zr24   O38       2.56030  1_455   S
    N6     O38       4.79669      .   S
    Zr24   O39       2.56030  1_554   S
    N8     O39       4.79669      .   S
    Zr24   O40       2.56030      .   S
    N3     O40       4.79669      .   S
    Zr24   O41       2.56030  1_455   S
    N6     O41       4.79669      .   S
    Zr24   O42       2.56030  1_445   S
    N5     O42       4.79669      .   S
    Zr24   O43       2.56030  1_454   S
    N1     O43       4.79669      .   S
    Zr24   O44       2.56030  1_455   S
    N0     O44       4.79669      .   S
    Zr24   O45       2.56030  1_545   S
    N4     O45       4.79669      .   S
    Zr24   O46       2.56030      .   S
    N3     O46       4.79669      .   S
    Zr24   O47       2.56030  1_554   S
    N2     O47       4.79669      .   S
    Zr24   O48       2.56030      .   S
    N11    O48       4.79669      .   S
    Zr49   O50       2.56030      .   S
    N14    O50       4.79669      .   S
    Zr49   O51       2.56030  1_545   S
    N13    O51       4.79669      .   S
    Zr49   O52       2.56030      .   S
    N1     O52       4.79669      .   S
    Zr49   O53       2.56030      .   S
    N0     O53       4.79669      .   S
    Zr49   O54       2.56030  1_545   S
    N13    O54       4.79669      .   S
    Zr49   O55       2.56030  1_545   S
    N22    O55       4.79669      .   S
    Zr49   O56       2.56030  1_545   S
    N23    O56       4.79669      .   S
    Zr49   O57       2.56030  1_545   S
    N12    O57       4.79669      .   S
    Zr49   O58       2.56030      .   S
    N20    O58       4.79669      .   S
    Zr49   O59       2.56030      .   S
    N14    O59       4.79669      .   S
    Zr49   O60       2.56030      .   S
    N21    O60       4.79669      .   S
    Zr49   O61       2.56030      .   S
    N15    O61       4.79669      .   S
    Zr49   O62       2.56030  1_545   S
    N12    O62       4.79669      .   S
    Zr49   O63       2.56030      .   S
    N11    O63       4.79669      .   S
    Zr49   O64       2.56030      .   S
    N15    O64       4.79669      .   S
    Zr49   O65       2.56030      .   S
    N2     O65       4.79669      .   S
    Zr49   O66       2.56030  1_545   S
    N23    O66       4.79669      .   S
    Zr49   O67       2.56030      .   S
    N2     O67       4.79669      .   S
    Zr49   O68       2.56030      .   S
    N20    O68       4.79669      .   S
    Zr49   O69       2.56030      .   S
    N1     O69       4.79669      .   S
    Zr49   O70       2.56030  1_545   S
    N22    O70       4.79669      .   S
    Zr49   O71       2.56030      .   S
    N21    O71       4.79669      .   S
    Zr49   O72       2.56030      .   S
    N0     O72       4.79669      .   S
    Zr49   O73       2.56030      .   S
    N11    O73       4.79669      .   S
    Zr74   O75       2.56030      .   S
    N16    O75       4.79669      .   S
    Zr74   O76       2.56030  1_455   S
    N19    O76       4.79669      .   S
    Zr74   O77       2.56030      .   S
    N7     O77       4.79669      .   S
    Zr74   O78       2.56030      .   S
    N10    O78       4.79669      .   S
    Zr74   O79       2.56030      .   S
    N8     O79       4.79669      .   S
    Zr74   O80       2.56030  1_455   S
    N18    O80       4.79669      .   S
    Zr74   O81       2.56030      .   S
    N17    O81       4.79669      .   S
    Zr74   O82       2.56030      .   S
    N9     O82       4.79669      .   S
    Zr74   O83       2.56030      .   S
    N15    O83       4.79669      .   S
    Zr74   O84       2.56030      .   S
    N8     O84       4.79669      .   S
    Zr74   O85       2.56030  1_455   S
    N14    O85       4.79669      .   S
    Zr74   O86       2.56030      .   S
    N7     O86       4.79669      .   S
    Zr74   O87       2.56030      .   S
    N10    O87       4.79669      .   S
    Zr74   O88       2.56030      .   S
    N12    O88       4.79669      .   S
    Zr74   O89       2.56030      .   S
    N9     O89       4.79669      .   S
    Zr74   O90       2.56030  1_455   S
    N13    O90       4.79669      .   S
    Zr74   O91       2.56030  1_455   S
    N19    O91       4.79669      .   S
    Zr74   O92       2.56030  1_455   S
    N18    O92       4.79669      .   S
    Zr74   O93       2.56030  1_455   S
    N14    O93       4.79669      .   S
    Zr74   O94       2.56030  1_455   S
    N13    O94       4.79669      .   S
    Zr74   O95       2.56030      .   S
    N17    O95       4.79669      .   S
    Zr74   O96       2.56030      .   S
    N16    O96       4.79669      .   S
    Zr74   O97       2.56030      .   S
    N15    O97       4.79669      .   S
    Zr74   O98       2.56030      .   S
    N12    O98       4.79669      .   S
    Zr99   O100      2.56030      .   S
    N16    O100      4.79669      .   S
    Zr99   O101      2.56030      .   S
    N19    O101      4.79669      .   S
    Zr99   O102      2.56030      .   S
    N21    O102      4.79669      .   S
    Zr99   O103      2.56030      .   S
    N22    O103      4.79669      .   S
    Zr99   O104      2.56030  1_554   S
    N18    O104      4.79669      .   S
    Zr99   O105      2.56030  1_554   S
    N20    O105      4.79669      .   S
    Zr99   O106      2.56030  1_554   S
    N17    O106      4.79669      .   S
    Zr99   O107      2.56030  1_554   S
    N23    O107      4.79669      .   S
    Zr99   O108      2.56030      .   S
    N5     O108      4.79669      .   S
    Zr99   O109      2.56030      .   S
    N19    O109      4.79669      .   S
    Zr99   O110      2.56030      .   S
    N6     O110      4.79669      .   S
    Zr99   O111      2.56030  1_554   S
    N18    O111      4.79669      .   S
    Zr99   O112      2.56030      .   S
    N22    O112      4.79669      .   S
    Zr99   O113      2.56030      .   S
    N4     O113      4.79669      .   S
    Zr99   O114      2.56030  1_554   S
    N23    O114      4.79669      .   S
    Zr99   O115      2.56030      .   S
    N5     O115      4.79669      .   S
    Zr99   O116      2.56030      .   S
    N21    O116      4.79669      .   S
    Zr99   O117      2.56030  1_554   S
    N20    O117      4.79669      .   S
    Zr99   O118      2.56030      .   S
    N6     O118      4.79669      .   S
    Zr99   O119      2.56030      .   S
    N3     O119      4.79669      .   S
    Zr99   O120      2.56030      .   S
    N16    O120      4.79669      .   S
    Zr99   O121      2.56030  1_554   S
    N17    O121      4.79669      .   S
    Zr99   O122      2.56030      .   S
    N3     O122      4.79669      .   S
    Zr99   O123      2.56030      .   S
    N4     O123      4.79669      .   S
