# CIF file generated by openbabel 2.4.90, see http://openbabel.sf.net
data_I
_chemical_name_common ''
_cell_length_a 20.7004
_cell_length_b 20.7004
_cell_length_c 20.7004
_cell_angle_alpha 90
_cell_angle_beta 90
_cell_angle_gamma 90
_space_group_name_H-M_alt 'P 1'
_space_group_name_Hall 'P 1'
loop_
    _symmetry_equiv_pos_as_xyz
    x,y,z
loop_
    _atom_site_label
    _atom_site_type_symbol
    _atom_site_fract_x
    _atom_site_fract_y
    _atom_site_fract_z
    _atom_site_occupancy
    Zr0     Zr   0.11989   0.00000   0.00000   1.000
    Zr1     Zr   0.05610   0.94390   0.94390   1.000
    Zr2     Zr   0.88011   0.00000   0.00000   1.000
    Zr3     Zr   0.00000   0.11989   0.00000   1.000
    Zr4     Zr   0.00000   0.88011   0.00000   1.000
    Zr5     Zr   0.00000   0.00000   0.11989   1.000
    Zr6     Zr   0.00000   0.00000   0.88011   1.000
    Zr7     Zr   0.11989   0.50000   0.50000   1.000
    Zr8     Zr   0.88011   0.50000   0.50000   1.000
    Zr9     Zr   0.00000   0.61989   0.50000   1.000
    Zr10    Zr   0.00000   0.38011   0.50000   1.000
    Zr11    Zr   0.00000   0.50000   0.61989   1.000
    Zr12    Zr   0.00000   0.50000   0.38011   1.000
    Zr13    Zr   0.61989   0.00000   0.50000   1.000
    Zr14    Zr   0.38011   0.00000   0.50000   1.000
    Zr15    Zr   0.50000   0.11989   0.50000   1.000
    Zr16    Zr   0.50000   0.88011   0.50000   1.000
    Zr17    Zr   0.50000   0.00000   0.61989   1.000
    Zr18    Zr   0.50000   0.00000   0.38011   1.000
    Zr19    Zr   0.61989   0.50000   0.00000   1.000
    Zr20    Zr   0.38011   0.50000   0.00000   1.000
    Zr21    Zr   0.50000   0.61989   0.00000   1.000
    Zr22    Zr   0.50000   0.38011   0.00000   1.000
    Zr23    Zr   0.50000   0.50000   0.11989   1.000
    Zr24    Zr   0.50000   0.50000   0.88011   1.000
    Zr25    Zr   0.94390   0.05610   0.94390   1.000
    Zr26    Zr   0.94390   0.94390   0.05610   1.000
    Zr27    Zr   0.05610   0.05610   0.05610   1.000
    Zr28    Zr   0.94390   0.05610   0.05610   1.000
    Zr29    Zr   0.05610   0.94390   0.05610   1.000
    Zr30    Zr   0.94390   0.94390   0.94390   1.000
    Zr31    Zr   0.05610   0.05610   0.94390   1.000
    Zr32    Zr   0.05610   0.44390   0.44390   1.000
    Zr33    Zr   0.94390   0.55610   0.44390   1.000
    Zr34    Zr   0.94390   0.44390   0.55610   1.000
    Zr35    Zr   0.05610   0.55610   0.55610   1.000
    Zr36    Zr   0.94390   0.55610   0.55610   1.000
    Zr37    Zr   0.05610   0.44390   0.55610   1.000
    Zr38    Zr   0.94390   0.44390   0.44390   1.000
    Zr39    Zr   0.05610   0.55610   0.44390   1.000
    Zr40    Zr   0.55610   0.94390   0.44390   1.000
    Zr41    Zr   0.44390   0.05610   0.44390   1.000
    Zr42    Zr   0.44390   0.94390   0.55610   1.000
    Zr43    Zr   0.55610   0.05610   0.55610   1.000
    Zr44    Zr   0.44390   0.05610   0.55610   1.000
    Zr45    Zr   0.55610   0.94390   0.55610   1.000
    Zr46    Zr   0.44390   0.94390   0.44390   1.000
    Zr47    Zr   0.55610   0.05610   0.44390   1.000
    Zr48    Zr   0.55610   0.44390   0.94390   1.000
    Zr49    Zr   0.44390   0.55610   0.94390   1.000
    Zr50    Zr   0.44390   0.44390   0.05610   1.000
    Zr51    Zr   0.55610   0.55610   0.05610   1.000
    Zr52    Zr   0.44390   0.55610   0.05610   1.000
    Zr53    Zr   0.55610   0.44390   0.05610   1.000
    Zr54    Zr   0.44390   0.44390   0.94390   1.000
    Zr55    Zr   0.55610   0.55610   0.94390   1.000
    O56     O    0.08800   0.97195   0.97195   1.000
    O57     O    0.02805   0.97195   0.91200   1.000
    O58     O    0.08800   0.97195   0.02805   1.000
    O59     O    0.08800   0.02805   0.97195   1.000
    O60     O    0.91200   0.97195   0.02805   1.000
    O61     O    0.91200   0.02805   0.97195   1.000
    O62     O    0.91200   0.97195   0.97195   1.000
    O63     O    0.97195   0.08799   0.02805   1.000
    O64     O    0.02805   0.08800   0.02805   1.000
    O65     O    0.97195   0.91200   0.97195   1.000
    O66     O    0.58799   0.52805   0.97195   1.000
    O67     O    0.58799   0.47195   0.97195   1.000
    O68     O    0.52805   0.41201   0.02805   1.000
    O69     O    0.47195   0.41201   0.97195   1.000
    O70     O    0.52805   0.41201   0.97195   1.000
    O71     O    0.52805   0.58799   0.02805   1.000
    O72     O    0.52805   0.58799   0.97195   1.000
    O73     O    0.47195   0.58799   0.97195   1.000
    O74     O    0.41200   0.47195   0.02805   1.000
    O75     O    0.41200   0.52805   0.02805   1.000
    O76     O    0.41200   0.47195   0.97195   1.000
    O77     O    0.41200   0.52805   0.97195   1.000
    O78     O    0.47195   0.47195   0.08800   1.000
    O79     O    0.52805   0.52805   0.08800   1.000
    O80     O    0.47195   0.52805   0.08800   1.000
    O81     O    0.52805   0.47195   0.08800   1.000
    O82     O    0.02805   0.97195   0.08800   1.000
    O83     O    0.97195   0.02805   0.08800   1.000
    O84     O    0.02805   0.02805   0.08800   1.000
    O85     O    0.97195   0.97195   0.08800   1.000
    O86     O    0.52805   0.97195   0.41201   1.000
    O87     O    0.52805   0.02805   0.41201   1.000
    O88     O    0.47195   0.97195   0.41201   1.000
    O89     O    0.97195   0.52805   0.41201   1.000
    O90     O    0.97195   0.47195   0.41201   1.000
    O91     O    0.58800   0.97195   0.47195   1.000
    O92     O    0.47195   0.08800   0.47195   1.000
    O93     O    0.41200   0.02805   0.47195   1.000
    O94     O    0.08799   0.47195   0.47195   1.000
    O95     O    0.02805   0.41200   0.47195   1.000
    O96     O    0.97195   0.58799   0.47195   1.000
    O97     O    0.58799   0.02805   0.47195   1.000
    O98     O    0.41200   0.97195   0.47195   1.000
    O99     O    0.97195   0.41200   0.47195   1.000
    O100    O    0.08800   0.52805   0.47195   1.000
    O101    O    0.02805   0.58799   0.47195   1.000
    O102    O    0.52805   0.08800   0.52805   1.000
    O103    O    0.41200   0.97195   0.52805   1.000
    O104    O    0.41200   0.02805   0.52805   1.000
    O105    O    0.58799   0.97195   0.52805   1.000
    O106    O    0.08800   0.47195   0.52805   1.000
    O107    O    0.02805   0.58799   0.52805   1.000
    O108    O    0.97195   0.58799   0.52805   1.000
    O109    O    0.97195   0.41200   0.52805   1.000
    O110    O    0.02805   0.41200   0.52805   1.000
    O111    O    0.97195   0.47195   0.58799   1.000
    O112    O    0.02805   0.52805   0.58799   1.000
    O113    O    0.97195   0.52805   0.58799   1.000
    O114    O    0.47195   0.97195   0.58799   1.000
    O115    O    0.52805   0.02805   0.58799   1.000
    O116    O    0.47195   0.02805   0.58799   1.000
    O117    O    0.52805   0.97195   0.58799   1.000
    O118    O    0.97195   0.02805   0.91200   1.000
    O119    O    0.02805   0.02805   0.91200   1.000
    O120    O    0.02805   0.91200   0.97195   1.000
    O121    O    0.97195   0.08800   0.97195   1.000
    O122    O    0.97195   0.91200   0.02805   1.000
    O123    O    0.08799   0.02805   0.02805   1.000
    O124    O    0.91200   0.02805   0.02805   1.000
    O125    O    0.02805   0.91200   0.02805   1.000
    O126    O    0.97195   0.97195   0.91200   1.000
    O127    O    0.02805   0.08799   0.97195   1.000
    O128    O    0.02805   0.47195   0.41201   1.000
    O129    O    0.91200   0.52805   0.47195   1.000
    O130    O    0.91200   0.47195   0.52805   1.000
    O131    O    0.08799   0.52805   0.52805   1.000
    O132    O    0.91200   0.52805   0.52805   1.000
    O133    O    0.02805   0.47195   0.58799   1.000
    O134    O    0.91200   0.47195   0.47195   1.000
    O135    O    0.02805   0.52805   0.41201   1.000
    O136    O    0.52805   0.91200   0.47195   1.000
    O137    O    0.47195   0.02805   0.41201   1.000
    O138    O    0.47195   0.91200   0.52805   1.000
    O139    O    0.58799   0.02805   0.52805   1.000
    O140    O    0.47195   0.08799   0.52805   1.000
    O141    O    0.52805   0.91200   0.52805   1.000
    O142    O    0.47195   0.91200   0.47195   1.000
    O143    O    0.52805   0.08799   0.47195   1.000
    O144    O    0.52805   0.47195   0.91200   1.000
    O145    O    0.47195   0.52805   0.91200   1.000
    O146    O    0.47195   0.41201   0.02805   1.000
    O147    O    0.58799   0.52805   0.02805   1.000
    O148    O    0.47195   0.58799   0.02805   1.000
    O149    O    0.58799   0.47195   0.02805   1.000
    O150    O    0.47195   0.47195   0.91200   1.000
    O151    O    0.52805   0.52805   0.91200   1.000
    N152    N    0.75000   0.00000   0.25000   1.000
    O153    O    0.80241   0.00000   0.14882   1.000
    O154    O    0.69759   0.00000   0.35117   1.000
    O155    O    0.85117   0.00000   0.19759   1.000
    O156    O    0.64882   0.00000   0.30241   1.000
    N157    N    0.75000   0.00000   0.75000   1.000
    O158    O    0.80241   0.00000   0.85117   1.000
    O159    O    0.69759   0.00000   0.64882   1.000
    O160    O    0.85118   0.00000   0.80241   1.000
    O161    O    0.64882   0.00000   0.69759   1.000
    N162    N    0.25000   0.00000   0.75000   1.000
    O163    O    0.19759   0.00000   0.85117   1.000
    O164    O    0.30241   0.00000   0.64882   1.000
    O165    O    0.14882   0.00000   0.80241   1.000
    O166    O    0.35117   0.00000   0.69759   1.000
    N167    N    0.25000   0.25000   0.00000   1.000
    O168    O    0.14883   0.19759   0.00000   1.000
    O169    O    0.19759   0.14882   0.00000   1.000
    O170    O    0.35117   0.30241   0.00000   1.000
    O171    O    0.30241   0.35117   0.00000   1.000
    N172    N    0.25000   0.75000   0.00000   1.000
    O173    O    0.14882   0.80241   0.00000   1.000
    O174    O    0.19759   0.85117   0.00000   1.000
    O175    O    0.35117   0.69759   0.00000   1.000
    O176    O    0.30241   0.64882   0.00000   1.000
    N177    N    0.75000   0.75000   0.00000   1.000
    O178    O    0.85118   0.80241   0.00000   1.000
    O179    O    0.80241   0.85117   0.00000   1.000
    O180    O    0.64882   0.69759   0.00000   1.000
    O181    O    0.69759   0.64882   0.00000   1.000
    N182    N    0.75000   0.25000   0.00000   1.000
    O183    O    0.85117   0.19759   0.00000   1.000
    O184    O    0.80241   0.14883   0.00000   1.000
    O185    O    0.64882   0.30241   0.00000   1.000
    O186    O    0.69759   0.35118   0.00000   1.000
    N187    N    0.00000   0.25000   0.25000   1.000
    O188    O    0.00000   0.14883   0.19759   1.000
    O189    O    0.00000   0.19759   0.14883   1.000
    O190    O    0.00000   0.30241   0.35118   1.000
    O191    O    0.00000   0.35117   0.30241   1.000
    N192    N    0.00000   0.25000   0.75000   1.000
    O193    O    0.00000   0.14882   0.80241   1.000
    O194    O    0.00000   0.19759   0.85118   1.000
    O195    O    0.00000   0.30241   0.64882   1.000
    O196    O    0.00000   0.35117   0.69759   1.000
    N197    N    0.00000   0.75000   0.75000   1.000
    O198    O    0.00000   0.85118   0.80241   1.000
    O199    O    0.00000   0.80241   0.85117   1.000
    O200    O    0.00000   0.69759   0.64882   1.000
    O201    O    0.00000   0.64883   0.69759   1.000
    N202    N    0.00000   0.75000   0.25000   1.000
    O203    O    0.00000   0.85117   0.19759   1.000
    O204    O    0.00000   0.80241   0.14883   1.000
    O205    O    0.00000   0.69759   0.35118   1.000
    O206    O    0.00000   0.64882   0.30241   1.000
    N207    N    0.25000   0.00000   0.25000   1.000
    O208    O    0.19759   0.00000   0.14882   1.000
    O209    O    0.30241   0.00000   0.35117   1.000
    O210    O    0.14882   0.00000   0.19759   1.000
    O211    O    0.35117   0.00000   0.30241   1.000
    N212    N    0.25000   0.75000   0.50000   1.000
    O213    O    0.19759   0.64882   0.50000   1.000
    O214    O    0.35117   0.80241   0.50000   1.000
    O215    O    0.14882   0.69759   0.50000   1.000
    O216    O    0.30241   0.85117   0.50000   1.000
    N217    N    0.75000   0.75000   0.50000   1.000
    O218    O    0.80241   0.64882   0.50000   1.000
    O219    O    0.64883   0.80241   0.50000   1.000
    O220    O    0.85118   0.69759   0.50000   1.000
    O221    O    0.69759   0.85117   0.50000   1.000
    N222    N    0.75000   0.25000   0.50000   1.000
    O223    O    0.80241   0.35117   0.50000   1.000
    O224    O    0.64882   0.19759   0.50000   1.000
    O225    O    0.85117   0.30241   0.50000   1.000
    O226    O    0.69759   0.14882   0.50000   1.000
    N227    N    0.25000   0.25000   0.50000   1.000
    O228    O    0.19759   0.35117   0.50000   1.000
    O229    O    0.35117   0.19759   0.50000   1.000
    O230    O    0.14882   0.30241   0.50000   1.000
    O231    O    0.30241   0.14882   0.50000   1.000
    N232    N    0.25000   0.50000   0.25000   1.000
    O233    O    0.14882   0.50000   0.30241   1.000
    O234    O    0.19759   0.50000   0.35118   1.000
    O235    O    0.30241   0.50000   0.14883   1.000
    O236    O    0.35117   0.50000   0.19759   1.000
    N237    N    0.25000   0.50000   0.75000   1.000
    O238    O    0.14882   0.50000   0.69759   1.000
    O239    O    0.19759   0.50000   0.64882   1.000
    O240    O    0.30241   0.50000   0.85117   1.000
    O241    O    0.35117   0.50000   0.80241   1.000
    N242    N    0.75000   0.50000   0.75000   1.000
    O243    O    0.85118   0.50000   0.69759   1.000
    O244    O    0.80241   0.50000   0.64882   1.000
    O245    O    0.69759   0.50000   0.85117   1.000
    O246    O    0.64883   0.50000   0.80241   1.000
    N247    N    0.75000   0.50000   0.25000   1.000
    O248    O    0.85117   0.50000   0.30241   1.000
    O249    O    0.80241   0.50000   0.35117   1.000
    O250    O    0.69759   0.50000   0.14882   1.000
    O251    O    0.64882   0.50000   0.19759   1.000
    N252    N    0.50000   0.25000   0.75000   1.000
    O253    O    0.50000   0.14882   0.69759   1.000
    O254    O    0.50000   0.19759   0.64882   1.000
    O255    O    0.50000   0.35117   0.80241   1.000
    O256    O    0.50000   0.30241   0.85117   1.000
    N257    N    0.50000   0.25000   0.25000   1.000
    O258    O    0.50000   0.14882   0.30241   1.000
    O259    O    0.50000   0.19759   0.35118   1.000
    O260    O    0.50000   0.35117   0.19759   1.000
    O261    O    0.50000   0.30241   0.14883   1.000
    N262    N    0.50000   0.75000   0.25000   1.000
    O263    O    0.50000   0.85117   0.30241   1.000
    O264    O    0.50000   0.80241   0.35118   1.000
    O265    O    0.50000   0.64882   0.19759   1.000
    O266    O    0.50000   0.69759   0.14883   1.000
    N267    N    0.50000   0.75000   0.75000   1.000
    O268    O    0.50000   0.85118   0.69759   1.000
    O269    O    0.50000   0.80241   0.64882   1.000
    O270    O    0.50000   0.64883   0.80241   1.000
    O271    O    0.50000   0.69759   0.85117   1.000
loop_
    _geom_bond_atom_site_label_1
    _geom_bond_atom_site_label_2
    _geom_bond_distance
    _geom_bond_site_symmetry_2
    _ccdc_geom_bond_type
    Zr1    O56       1.05367      .   S
    Zr0    O56       1.05367  1_544   S
    Zr1    O57       1.05367      .   S
    Zr6    O57       1.05367  1_545   S
    Zr0    O58       1.05367  1_545   S
    Zr29   O58       1.05367      .   S
    Zr0    O59       1.05367  1_554   S
    Zr31   O59       1.05367      .   S
    Zr2    O60       1.05367  1_545   S
    Zr26   O60       1.05367      .   S
    Zr2    O61       1.05367  1_554   S
    Zr25   O61       1.05367      .   S
    Zr2    O62       1.05367  1_544   S
    Zr30   O62       1.05367      .   S
    Zr3    O63       1.05367  1_455   S
    Zr28   O63       1.05367      .   S
    Zr3    O64       1.05367      .   S
    Zr27   O64       1.05367      .   S
    Zr4    O65       1.05367  1_454   S
    Zr30   O65       1.05367      .   S
    Zr19   O66       1.05367  1_554   S
    Zr55   O66       1.05367      .   S
    Zr19   O67       1.05367  1_554   S
    Zr48   O67       1.05367      .   S
    Zr22   O68       1.05367      .   S
    Zr53   O68       1.05367      .   S
    Zr22   O69       1.05367  1_554   S
    Zr54   O69       1.05367      .   S
    Zr22   O70       1.05367  1_554   S
    Zr48   O70       1.05367      .   S
    Zr21   O71       1.05367      .   S
    Zr51   O71       1.05367      .   S
    Zr21   O72       1.05367  1_554   S
    Zr55   O72       1.05367      .   S
    Zr21   O73       1.05367  1_554   S
    Zr49   O73       1.05367      .   S
    Zr20   O74       1.05367      .   S
    Zr50   O74       1.05367      .   S
    Zr20   O75       1.05367      .   S
    Zr52   O75       1.05367      .   S
    Zr20   O76       1.05367  1_554   S
    Zr54   O76       1.05367      .   S
    Zr20   O77       1.05367  1_554   S
    Zr49   O77       1.05367      .   S
    Zr50   O78       1.05367      .   S
    Zr23   O78       1.05367      .   S
    Zr51   O79       1.05367      .   S
    Zr23   O79       1.05367      .   S
    Zr52   O80       1.05367      .   S
    Zr23   O80       1.05367      .   S
    Zr53   O81       1.05367      .   S
    Zr23   O81       1.05367      .   S
    Zr29   O82       1.05367      .   S
    Zr5    O82       1.05367  1_545   S
    Zr28   O83       1.05367      .   S
    Zr5    O83       1.05367  1_455   S
    Zr27   O84       1.05367      .   S
    Zr5    O84       1.05367      .   S
    Zr26   O85       1.05367      .   S
    Zr5    O85       1.05367  1_445   S
    Zr18   O86       1.05367  1_545   S
    Zr40   O86       1.05367      .   S
    Zr18   O87       1.05367      .   S
    Zr47   O87       1.05367      .   S
    Zr18   O88       1.05367  1_545   S
    Zr46   O88       1.05367      .   S
    Zr12   O89       1.05367  1_455   S
    Zr33   O89       1.05367      .   S
    Zr12   O90       1.05367  1_455   S
    Zr38   O90       1.05367      .   S
    Zr40   O91       1.05367      .   S
    Zr13   O91       1.05367  1_545   S
    Zr41   O92       1.05367      .   S
    Zr15   O92       1.05367      .   S
    Zr41   O93       1.05367      .   S
    Zr14   O93       1.05367      .   S
    Zr32   O94       1.05367      .   S
    Zr7    O94       1.05367      .   S
    Zr32   O95       1.05367      .   S
    Zr10   O95       1.05367      .   S
    Zr33   O96       1.05367      .   S
    Zr9    O96       1.05367  1_455   S
    Zr47   O97       1.05367      .   S
    Zr13   O97       1.05367      .   S
    Zr46   O98       1.05367      .   S
    Zr14   O98       1.05367  1_545   S
    Zr38   O99       1.05367      .   S
    Zr10   O99       1.05367  1_455   S
    Zr39   O100      1.05367      .   S
    Zr7    O100      1.05367      .   S
    Zr39   O101      1.05367      .   S
    Zr9    O101      1.05367      .   S
    Zr15   O102      1.05367      .   S
    Zr43   O102      1.05367      .   S
    Zr14   O103      1.05367  1_545   S
    Zr42   O103      1.05367      .   S
    Zr14   O104      1.05367      .   S
    Zr44   O104      1.05367      .   S
    Zr13   O105      1.05367  1_545   S
    Zr45   O105      1.05367      .   S
    Zr7    O106      1.05367      .   S
    Zr37   O106      1.05367      .   S
    Zr9    O107      1.05367      .   S
    Zr35   O107      1.05367      .   S
    Zr9    O108      1.05367  1_455   S
    Zr36   O108      1.05367      .   S
    Zr10   O109      1.05367  1_455   S
    Zr34   O109      1.05367      .   S
    Zr10   O110      1.05367      .   S
    Zr37   O110      1.05367      .   S
    Zr34   O111      1.05367      .   S
    Zr11   O111      1.05367  1_455   S
    Zr35   O112      1.05367      .   S
    Zr11   O112      1.05367      .   S
    Zr36   O113      1.05367      .   S
    Zr11   O113      1.05367  1_455   S
    Zr42   O114      1.05367      .   S
    Zr17   O114      1.05367  1_545   S
    Zr43   O115      1.05367      .   S
    Zr17   O115      1.05367      .   S
    Zr44   O116      1.05367      .   S
    Zr17   O116      1.05367      .   S
    Zr45   O117      1.05367      .   S
    Zr17   O117      1.05367  1_545   S
    Zr6    O118      1.05367  1_455   S
    Zr25   O118      1.05367      .   S
    Zr6    O119      1.05367      .   S
    Zr31   O119      1.05367      .   S
    Zr1    O120      1.05367      .   S
    Zr4    O120      1.05367  1_554   S
    Zr25   O121      1.05367      .   S
    Zr3    O121      1.05367  1_454   S
    Zr26   O122      1.05367      .   S
    Zr4    O122      1.05367  1_455   S
    Zr27   O123      1.05367      .   S
    Zr0    O123      1.05367      .   S
    Zr28   O124      1.05367      .   S
    Zr2    O124      1.05367      .   S
    Zr29   O125      1.05367      .   S
    Zr4    O125      1.05367      .   S
    Zr30   O126      1.05367      .   S
    Zr6    O126      1.05367  1_445   S
    Zr31   O127      1.05367      .   S
    Zr3    O127      1.05367  1_554   S
    Zr32   O128      1.05367      .   S
    Zr12   O128      1.05367      .   S
    Zr33   O129      1.05367      .   S
    Zr8    O129      1.05367      .   S
    Zr34   O130      1.05367      .   S
    Zr8    O130      1.05367      .   S
    Zr35   O131      1.05367      .   S
    Zr7    O131      1.05367      .   S
    Zr36   O132      1.05367      .   S
    Zr8    O132      1.05367      .   S
    Zr37   O133      1.05367      .   S
    Zr11   O133      1.05367      .   S
    Zr38   O134      1.05367      .   S
    Zr8    O134      1.05367      .   S
    Zr39   O135      1.05367      .   S
    Zr12   O135      1.05367      .   S
    Zr40   O136      1.05367      .   S
    Zr16   O136      1.05367      .   S
    Zr41   O137      1.05367      .   S
    Zr18   O137      1.05367      .   S
    Zr42   O138      1.05367      .   S
    Zr16   O138      1.05367      .   S
    Zr43   O139      1.05367      .   S
    Zr13   O139      1.05367      .   S
    Zr44   O140      1.05367      .   S
    Zr15   O140      1.05367      .   S
    Zr45   O141      1.05367      .   S
    Zr16   O141      1.05367      .   S
    Zr46   O142      1.05367      .   S
    Zr16   O142      1.05367      .   S
    Zr47   O143      1.05367      .   S
    Zr15   O143      1.05367      .   S
    Zr48   O144      1.05367      .   S
    Zr24   O144      1.05367      .   S
    Zr49   O145      1.05367      .   S
    Zr24   O145      1.05367      .   S
    Zr50   O146      1.05367      .   S
    Zr22   O146      1.05367      .   S
    Zr51   O147      1.05367      .   S
    Zr19   O147      1.05367      .   S
    Zr52   O148      1.05367      .   S
    Zr21   O148      1.05367      .   S
    Zr53   O149      1.05367      .   S
    Zr19   O149      1.05367      .   S
    Zr54   O150      1.05367      .   S
    Zr24   O150      1.05367      .   S
    Zr55   O151      1.05367      .   S
    Zr24   O151      1.05367      .   S
    N152   O153      2.35868      .   S
    Zr2    O153      3.47534      .   S
    N152   O154      2.35868      .   S
    Zr13   O154      3.47534      .   S
    N152   O155      2.35868      .   S
    Zr5    O155      3.47534  1_455   S
    N152   O156      2.35868      .   S
    Zr18   O156      3.47534      .   S
    N157   O158      2.35868      .   S
    Zr2    O158      3.47534  1_554   S
    N157   O159      2.35868      .   S
    Zr13   O159      3.47534      .   S
    N157   O160      2.35868      .   S
    Zr6    O160      3.47534  1_455   S
    N157   O161      2.35868      .   S
    Zr17   O161      3.47534      .   S
    N162   O163      2.35868      .   S
    Zr0    O163      3.47534  1_554   S
    N162   O164      2.35868      .   S
    Zr14   O164      3.47534      .   S
    N162   O165      2.35868      .   S
    Zr6    O165      3.47534      .   S
    N162   O166      2.35868      .   S
    Zr17   O166      3.47534      .   S
    N167   O168      2.35868      .   S
    Zr3    O168      3.47534      .   S
    N167   O169      2.35868      .   S
    Zr0    O169      3.47534      .   S
    N167   O170      2.35868      .   S
    Zr22   O170      3.47534      .   S
    N167   O171      2.35868      .   S
    Zr20   O171      3.47534      .   S
    N172   O173      2.35868      .   S
    Zr4    O173      3.47534      .   S
    N172   O174      2.35868      .   S
    Zr0    O174      3.47534  1_545   S
    N172   O175      2.35868      .   S
    Zr21   O175      3.47534      .   S
    N172   O176      2.35868      .   S
    Zr20   O176      3.47534      .   S
    N177   O178      2.35868      .   S
    Zr4    O178      3.47534  1_455   S
    N177   O179      2.35868      .   S
    Zr2    O179      3.47534  1_545   S
    N177   O180      2.35868      .   S
    Zr21   O180      3.47534      .   S
    N177   O181      2.35868      .   S
    Zr19   O181      3.47534      .   S
    N182   O183      2.35868      .   S
    Zr3    O183      3.47534  1_455   S
    N182   O184      2.35868      .   S
    Zr2    O184      3.47534      .   S
    N182   O185      2.35868      .   S
    Zr22   O185      3.47534      .   S
    N182   O186      2.35868      .   S
    Zr19   O186      3.47534      .   S
    N187   O188      2.35868      .   S
    Zr5    O188      3.47534      .   S
    N187   O189      2.35868      .   S
    Zr3    O189      3.47534      .   S
    N187   O190      2.35868      .   S
    Zr10   O190      3.47534      .   S
    N187   O191      2.35868      .   S
    Zr12   O191      3.47534      .   S
    N192   O193      2.35868      .   S
    Zr6    O193      3.47534      .   S
    N192   O194      2.35868      .   S
    Zr3    O194      3.47534  1_554   S
    N192   O195      2.35868      .   S
    Zr10   O195      3.47534      .   S
    N192   O196      2.35868      .   S
    Zr11   O196      3.47534      .   S
    N197   O198      2.35868      .   S
    Zr6    O198      3.47534  1_545   S
    N197   O199      2.35868      .   S
    Zr4    O199      3.47534  1_554   S
    N197   O200      2.35868      .   S
    Zr9    O200      3.47534      .   S
    N197   O201      2.35868      .   S
    Zr11   O201      3.47534      .   S
    N202   O203      2.35868      .   S
    Zr5    O203      3.47534  1_545   S
    N202   O204      2.35868      .   S
    Zr4    O204      3.47534      .   S
    N202   O205      2.35868      .   S
    Zr9    O205      3.47534      .   S
    N202   O206      2.35868      .   S
    Zr12   O206      3.47534      .   S
    N207   O208      2.35868      .   S
    Zr0    O208      3.47534      .   S
    N207   O209      2.35868      .   S
    Zr14   O209      3.47534      .   S
    N207   O210      2.35868      .   S
    Zr5    O210      3.47534      .   S
    N207   O211      2.35868      .   S
    Zr18   O211      3.47534      .   S
    N212   O213      2.35868      .   S
    Zr7    O213      3.47534      .   S
    N212   O214      2.35868      .   S
    Zr16   O214      3.47534      .   S
    N212   O215      2.35868      .   S
    Zr9    O215      3.47534      .   S
    N212   O216      2.35868      .   S
    Zr14   O216      3.47534  1_545   S
    N217   O218      2.35868      .   S
    Zr8    O218      3.47534      .   S
    N217   O219      2.35868      .   S
    Zr16   O219      3.47534      .   S
    N217   O220      2.35868      .   S
    Zr9    O220      3.47534  1_455   S
    N217   O221      2.35868      .   S
    Zr13   O221      3.47534  1_545   S
    N222   O223      2.35868      .   S
    Zr8    O223      3.47534      .   S
    N222   O224      2.35868      .   S
    Zr15   O224      3.47534      .   S
    N222   O225      2.35868      .   S
    Zr10   O225      3.47534  1_455   S
    N222   O226      2.35868      .   S
    Zr13   O226      3.47534      .   S
    N227   O228      2.35868      .   S
    Zr7    O228      3.47534      .   S
    N227   O229      2.35868      .   S
    Zr15   O229      3.47534      .   S
    N227   O230      2.35868      .   S
    Zr10   O230      3.47534      .   S
    N227   O231      2.35868      .   S
    Zr14   O231      3.47534      .   S
    N232   O233      2.35868      .   S
    Zr12   O233      3.47534      .   S
    N232   O234      2.35868      .   S
    Zr7    O234      3.47534      .   S
    N232   O235      2.35868      .   S
    Zr20   O235      3.47534      .   S
    N232   O236      2.35868      .   S
    Zr23   O236      3.47534      .   S
    N237   O238      2.35868      .   S
    Zr11   O238      3.47534      .   S
    N237   O239      2.35868      .   S
    Zr7    O239      3.47534      .   S
    N237   O240      2.35868      .   S
    Zr20   O240      3.47534  1_554   S
    N237   O241      2.35868      .   S
    Zr24   O241      3.47534      .   S
    N242   O243      2.35868      .   S
    Zr11   O243      3.47534  1_455   S
    N242   O244      2.35868      .   S
    Zr8    O244      3.47534      .   S
    N242   O245      2.35868      .   S
    Zr19   O245      3.47534  1_554   S
    N242   O246      2.35868      .   S
    Zr24   O246      3.47534      .   S
    N247   O248      2.35868      .   S
    Zr12   O248      3.47534  1_455   S
    N247   O249      2.35868      .   S
    Zr8    O249      3.47534      .   S
    N247   O250      2.35868      .   S
    Zr19   O250      3.47534      .   S
    N247   O251      2.35868      .   S
    Zr23   O251      3.47534      .   S
    N252   O253      2.35868      .   S
    Zr17   O253      3.47534      .   S
    N252   O254      2.35868      .   S
    Zr15   O254      3.47534      .   S
    N252   O255      2.35868      .   S
    Zr24   O255      3.47534      .   S
    N252   O256      2.35868      .   S
    Zr22   O256      3.47534  1_554   S
    N257   O258      2.35868      .   S
    Zr18   O258      3.47534      .   S
    N257   O259      2.35868      .   S
    Zr15   O259      3.47534      .   S
    N257   O260      2.35868      .   S
    Zr23   O260      3.47534      .   S
    N257   O261      2.35868      .   S
    Zr22   O261      3.47534      .   S
    N262   O263      2.35868      .   S
    Zr18   O263      3.47534  1_545   S
    N262   O264      2.35868      .   S
    Zr16   O264      3.47534      .   S
    N262   O265      2.35868      .   S
    Zr23   O265      3.47534      .   S
    N262   O266      2.35868      .   S
    Zr21   O266      3.47534      .   S
    N267   O268      2.35868      .   S
    Zr17   O268      3.47534  1_545   S
    N267   O269      2.35868      .   S
    Zr16   O269      3.47534      .   S
    N267   O270      2.35868      .   S
    Zr24   O270      3.47534      .   S
    N267   O271      2.35868      .   S
    Zr21   O271      3.47534  1_554   S
