data_ja_512311a_si_007_tobacco
_audit_creation_date              2017-03-24
_audit_creation_method            'Materials Studio'
_symmetry_space_group_name_H-M    'P1'
_symmetry_Int_Tables_number       1
_symmetry_cell_setting            triclinic
loop_
_symmetry_equiv_pos_as_xyz
  x,y,z
_cell_length_a                    37.1295
_cell_length_b                    37.1295
_cell_length_c                    30.0520
_cell_angle_alpha                 90.0000
_cell_angle_beta                  90.0000
_cell_angle_gamma                 120.0000
loop_
_atom_site_label
_atom_site_type_symbol
_atom_site_fract_x
_atom_site_fract_y
_atom_site_fract_z
_atom_site_U_iso_or_equiv
_atom_site_adp_type
_atom_site_occupancy
X1     C     1.02139   0.97868   0.25151   0.00000  Uiso   1.00
C2     C     1.04297   1.02276   0.25364   0.00000  Uiso   1.00
X3     C     1.02212   1.04607   0.25243   0.00000  Uiso   1.00
C4     C     0.97799   1.02339   0.25062   0.00000  Uiso   1.00
X5     C     0.95532   0.97950   0.24930   0.00000  Uiso   1.00
C6     C     0.97744   0.95778   0.24901   0.00000  Uiso   1.00
H7     H     1.07651   1.03897   0.25217   0.00000  Uiso   1.00
H8     H     0.96059   1.03957   0.25130   0.00000  Uiso   1.00
H9     H     0.95991   0.92415   0.24962   0.00000  Uiso   1.00
X10    C     1.04461   1.02239   0.75313   0.00000  Uiso   1.00
C11    C     1.02140   1.04337   0.75352   0.00000  Uiso   1.00
X12    C     0.97745   1.02166   0.75316   0.00000  Uiso   1.00
C13    C     0.95620   0.97782   0.75288   0.00000  Uiso   1.00
X14    C     0.97783   0.95560   0.75270   0.00000  Uiso   1.00
C15    C     1.02176   0.97820   0.75268   0.00000  Uiso   1.00
H16    H     1.03724   1.07692   0.75284   0.00000  Uiso   1.00
H17    H     0.92254   0.96085   0.75270   0.00000  Uiso   1.00
H18    H     1.03786   0.96073   0.75342   0.00000  Uiso   1.00
X19    C     0.30987   0.62411   0.24647   0.00000  Uiso   1.00
C20    C     0.35362   0.64644   0.24697   0.00000  Uiso   1.00
X21    C     0.37579   0.69018   0.24779   0.00000  Uiso   1.00
C22    C     0.35349   0.71167   0.24819   0.00000  Uiso   1.00
X23    C     0.30963   0.69016   0.24755   0.00000  Uiso   1.00
C24    C     0.28824   0.64629   0.24664   0.00000  Uiso   1.00
H25    H     0.37052   0.62966   0.24679   0.00000  Uiso   1.00
H26    H     0.37045   0.74528   0.25026   0.00000  Uiso   1.00
H27    H     0.25461   0.62925   0.24491   0.00000  Uiso   1.00
X28    C     0.62125   0.31054   0.74732   0.00000  Uiso   1.00
C29    C     0.64348   0.35434   0.74695   0.00000  Uiso   1.00
X30    C     0.68726   0.37664   0.74628   0.00000  Uiso   1.00
C31    C     0.70883   0.35445   0.74606   0.00000  Uiso   1.00
X32    C     0.68736   0.31068   0.74649   0.00000  Uiso   1.00
C33    C     0.64357   0.28907   0.74704   0.00000  Uiso   1.00
H34    H     0.62663   0.37117   0.74723   0.00000  Uiso   1.00
H35    H     0.74251   0.37132   0.74565   0.00000  Uiso   1.00
H36    H     0.62681   0.25539   0.74732   0.00000  Uiso   1.00
X37    C     0.38847   0.27706   0.03579   0.00000  Uiso   1.00
C38    C     0.36083   0.28421   0.06187   0.00000  Uiso   1.00
X39    C     0.37031   0.29880   0.10608   0.00000  Uiso   1.00
C40    C     0.40822   0.30634   0.12476   0.00000  Uiso   1.00
X41    C     0.43742   0.30104   0.09974   0.00000  Uiso   1.00
C42    C     0.42715   0.28670   0.05545   0.00000  Uiso   1.00
H43    H     0.33058   0.27641   0.04909   0.00000  Uiso   1.00
H44    H     0.41501   0.31677   0.15894   0.00000  Uiso   1.00
H45    H     0.45060   0.28511   0.03569   0.00000  Uiso   1.00
X46    C     0.38615   1.10864   0.46831   0.00000  Uiso   1.00
C47    C     0.42402   1.13810   0.44770   0.00000  Uiso   1.00
X48    C     0.43456   1.13249   0.40418   0.00000  Uiso   1.00
C49    C     0.40673   1.09636   0.38060   0.00000  Uiso   1.00
X50    C     0.36870   1.06646   0.39958   0.00000  Uiso   1.00
C51    C     0.35917   1.07267   0.44345   0.00000  Uiso   1.00
H52    H     0.44676   1.16503   0.46592   0.00000  Uiso   1.00
H53    H     0.41390   1.09238   0.34664   0.00000  Uiso   1.00
H54    H     0.32955   1.04981   0.45719   0.00000  Uiso   1.00
X55    C     0.72535   1.11054   0.03504   0.00000  Uiso   1.00
C56    C     0.71662   1.07481   0.06028   0.00000  Uiso   1.00
X57    C     0.70174   1.06938   0.10436   0.00000  Uiso   1.00
C58    C     0.69458   1.09980   0.12336   0.00000  Uiso   1.00
X59    C     0.70239   1.13568   0.09958   0.00000  Uiso   1.00
C60    C     0.71756   1.14057   0.05561   0.00000  Uiso   1.00
H61    H     0.72369   1.05198   0.04701   0.00000  Uiso   1.00
H62    H     0.68193   1.09492   0.15670   0.00000  Uiso   1.00
H63    H     0.72257   1.16779   0.03746   0.00000  Uiso   1.00
X64    C     0.27405   0.38482   0.53708   0.00000  Uiso   1.00
C65    C     0.28358   0.42357   0.55579   0.00000  Uiso   1.00
X66    C     0.29810   0.43425   0.60003   0.00000  Uiso   1.00
C67    C     0.30304   0.40492   0.62551   0.00000  Uiso   1.00
X68    C     0.29489   0.36653   0.60731   0.00000  Uiso   1.00
C69    C     0.28033   0.35691   0.56314   0.00000  Uiso   1.00
H70    H     0.28045   0.44583   0.53533   0.00000  Uiso   1.00
H71    H     0.31357   0.41192   0.65963   0.00000  Uiso   1.00
H72    H     0.27263   0.32692   0.54946   0.00000  Uiso   1.00
X73    C     1.11127   0.72623   0.53631   0.00000  Uiso   1.00
C74    C     1.07672   0.71972   0.56177   0.00000  Uiso   1.00
X75    C     1.07115   0.70477   0.60564   0.00000  Uiso   1.00
C76    C     1.10115   0.69672   0.62431   0.00000  Uiso   1.00
X77    C     1.13693   0.70327   0.60030   0.00000  Uiso   1.00
C78    C     1.14087   0.71748   0.55561   0.00000  Uiso   1.00
H79    H     1.05380   0.72610   0.54720   0.00000  Uiso   1.00
H80    H     1.09477   0.68303   0.65714   0.00000  Uiso   1.00
H81    H     1.16798   0.72412   0.53615   0.00000  Uiso   1.00
X82    C     1.11061   0.38070   0.96173   0.00000  Uiso   1.00
C83    C     1.07433   0.35471   0.93688   0.00000  Uiso   1.00
X84    C     1.06852   0.36535   0.89348   0.00000  Uiso   1.00
C85    C     1.09889   0.40335   0.87500   0.00000  Uiso   1.00
X86    C     1.13547   0.43081   0.89855   0.00000  Uiso   1.00
C87    C     1.14072   0.41864   0.94168   0.00000  Uiso   1.00
H88    H     1.05135   0.32474   0.94988   0.00000  Uiso   1.00
H89    H     1.09417   0.41064   0.84142   0.00000  Uiso   1.00
H90    H     1.16695   0.44064   0.96124   0.00000  Uiso   1.00
X91    C    -0.10832   0.27194   0.46152   0.00000  Uiso   1.00
C92    C    -0.07272   0.28145   0.43632   0.00000  Uiso   1.00
X93    C    -0.06718   0.29826   0.39317   0.00000  Uiso   1.00
C94    C    -0.09754   0.30646   0.37556   0.00000  Uiso   1.00
X95    C    -0.13377   0.29762   0.39991   0.00000  Uiso   1.00
C96    C    -0.13853   0.28003   0.44290   0.00000  Uiso   1.00
H97    H    -0.04984   0.27443   0.44973   0.00000  Uiso   1.00
H98    H    -0.09312   0.31864   0.34208   0.00000  Uiso   1.00
H99    H    -0.16481   0.27443   0.46333   0.00000  Uiso   1.00
X100   C     0.72708   0.61860   0.46238   0.00000  Uiso   1.00
C101   C     0.71908   0.58037   0.44375   0.00000  Uiso   1.00
X102   C     0.70270   0.56845   0.40046   0.00000  Uiso   1.00
C103   C     0.69445   0.59568   0.37551   0.00000  Uiso   1.00
X104   C     0.70199   0.63398   0.39329   0.00000  Uiso   1.00
C105   C     0.71804   0.64492   0.43687   0.00000  Uiso   1.00
H106   H     0.72490   0.55934   0.46339   0.00000  Uiso   1.00
H107   H     0.68219   0.58711   0.34207   0.00000  Uiso   1.00
H108   H     0.72486   0.67472   0.45037   0.00000  Uiso   1.00
X109   C    -0.10814   0.61015   0.03173   0.00000  Uiso   1.00
C110   C    -0.13752   0.57225   0.05261   0.00000  Uiso   1.00
X111   C    -0.13169   0.56210   0.09633   0.00000  Uiso   1.00
C112   C    -0.09533   0.59042   0.11946   0.00000  Uiso   1.00
X113   C    -0.06578   0.62840   0.10027   0.00000  Uiso   1.00
C114   C    -0.07222   0.63750   0.05642   0.00000  Uiso   1.00
H115   H    -0.16508   0.54999   0.03497   0.00000  Uiso   1.00
H116   H    -0.09032   0.58334   0.15306   0.00000  Uiso   1.00
H117   H    -0.04964   0.66721   0.04261   0.00000  Uiso   1.00
X118   C     0.61334  -0.11097   0.53513   0.00000  Uiso   1.00
C119   C     0.64031  -0.07529   0.56047   0.00000  Uiso   1.00
X120   C     0.63067  -0.06980   0.60446   0.00000  Uiso   1.00
C121   C     0.59291  -0.10016   0.62327   0.00000  Uiso   1.00
X122   C     0.56481  -0.13598   0.59933   0.00000  Uiso   1.00
C123   C     0.57534  -0.14087   0.55546   0.00000  Uiso   1.00
H124   H     0.67032  -0.05257   0.54736   0.00000  Uiso   1.00
H125   H     0.58503  -0.09527   0.65655   0.00000  Uiso   1.00
H126   H     0.55317  -0.16803   0.53719   0.00000  Uiso   1.00
X127   C     0.26924  -0.11202   0.96324   0.00000  Uiso   1.00
C128   C     0.27756  -0.14199   0.94446   0.00000  Uiso   1.00
X129   C     0.29370  -0.13764   0.90067   0.00000  Uiso   1.00
C130   C     0.30100  -0.10194   0.87604   0.00000  Uiso   1.00
X131   C     0.29257  -0.07183   0.89399   0.00000  Uiso   1.00
C132   C     0.27665  -0.07734   0.93752   0.00000  Uiso   1.00
H133   H     0.27254  -0.16805   0.96496   0.00000  Uiso   1.00
H134   H     0.31236  -0.09764   0.84222   0.00000  Uiso   1.00
H135   H     0.27033  -0.05423   0.95167   0.00000  Uiso   1.00
X136   C     0.61767   0.72743   0.96333   0.00000  Uiso   1.00
C137   C     0.57956   0.71921   0.94350   0.00000  Uiso   1.00
X138   C     0.56831   0.70305   0.90010   0.00000  Uiso   1.00
C139   C     0.59581   0.69493   0.87571   0.00000  Uiso   1.00
X140   C     0.63375   0.70228   0.89418   0.00000  Uiso   1.00
C141   C     0.64408   0.71799   0.93798   0.00000  Uiso   1.00
H142   H     0.55711   0.72332   0.96242   0.00000  Uiso   1.00
H143   H     0.58769   0.68285   0.84216   0.00000  Uiso   1.00
H144   H     0.67409   0.72507   0.95094   0.00000  Uiso   1.00
Zn145  Zn    0.66301   0.28496   0.27494   0.00000  Uiso   1.00
Zn146  Zn    0.71660   0.37696   0.27420   0.00000  Uiso   1.00
Zn147  Zn    0.66853   0.33301   0.19144   0.00000  Uiso   1.00
Zn148  Zn    0.62427   0.33855   0.27359   0.00000  Uiso   1.00
O149   O     0.66804   0.33337   0.25326   0.00000  Uiso   1.00
O150   O     0.70548   0.29313   0.31095   0.00000  Uiso   1.00
O151   O     0.74764   0.41056   0.23014   0.00000  Uiso   1.00
O152   O     0.67381   0.28959   0.16948   0.00000  Uiso   1.00
O153   O     0.74861   0.36082   0.30440   0.00000  Uiso   1.00
O154   O     0.66643   0.25399   0.23126   0.00000  Uiso   1.00
O155   O     0.71215   0.38142   0.16862   0.00000  Uiso   1.00
O156   O     0.59184   0.33775   0.22878   0.00000  Uiso   1.00
O157   O     0.70851   0.41172   0.30939   0.00000  Uiso   1.00
O158   O     0.62029   0.32797   0.16840   0.00000  Uiso   1.00
O159   O     0.64060   0.38631   0.30476   0.00000  Uiso   1.00
O160   O     0.58857   0.29508   0.30795   0.00000  Uiso   1.00
O161   O     0.61457   0.25300   0.30471   0.00000  Uiso   1.00
X162   C     0.74062   0.32521   0.31850   0.00000  Uiso   1.00
X163   C     0.74309   0.41152   0.18834   0.00000  Uiso   1.00
X164   C     0.67284   0.25877   0.18956   0.00000  Uiso   1.00
X165   C     0.59116   0.33128   0.18715   0.00000  Uiso   1.00
X166   C     0.67637   0.41438   0.31802   0.00000  Uiso   1.00
X167   C     0.58607   0.26040   0.31708   0.00000  Uiso   1.00
Zn168  Zn    0.33838   0.62289   0.77259   0.00000  Uiso   1.00
Zn169  Zn    0.33227   0.66689   0.69061   0.00000  Uiso   1.00
Zn170  Zn    0.28384   0.66058   0.77391   0.00000  Uiso   1.00
Zn171  Zn    0.37556   0.71496   0.77370   0.00000  Uiso   1.00
O172   O     0.33250   0.66627   0.75244   0.00000  Uiso   1.00
O173   O     0.33729   0.59033   0.72773   0.00000  Uiso   1.00
O174   O     0.28934   0.67314   0.66848   0.00000  Uiso   1.00
O175   O     0.25211   0.61162   0.80289   0.00000  Uiso   1.00
O176   O     0.32650   0.61825   0.66753   0.00000  Uiso   1.00
O177   O     0.29545   0.58706   0.80736   0.00000  Uiso   1.00
O178   O     0.25311   0.66418   0.73006   0.00000  Uiso   1.00
O179   O     0.35873   0.74674   0.80347   0.00000  Uiso   1.00
O180   O     0.38127   0.71003   0.66824   0.00000  Uiso   1.00
O181   O     0.29128   0.70260   0.81054   0.00000  Uiso   1.00
O182   O     0.40960   0.74582   0.72988   0.00000  Uiso   1.00
O183   O     0.41035   0.70727   0.80935   0.00000  Uiso   1.00
O184   O     0.38643   0.63970   0.80329   0.00000  Uiso   1.00
X185   C     0.33012   0.58926   0.68623   0.00000  Uiso   1.00
X186   C     0.25818   0.67154   0.68852   0.00000  Uiso   1.00
X187   C     0.26030   0.58376   0.81570   0.00000  Uiso   1.00
X188   C     0.32299   0.73811   0.81786   0.00000  Uiso   1.00
X189   C     0.41124   0.74087   0.68824   0.00000  Uiso   1.00
X190   C     0.41387   0.67548   0.81719   0.00000  Uiso   1.00
Zn191  Zn    0.20417   0.36803   0.20541   0.00000  Uiso   1.00
Zn192  Zn    0.11612   0.30226   0.22541   0.00000  Uiso   1.00
Zn193  Zn    0.18929   0.30251   0.27254   0.00000  Uiso   1.00
Zn194  Zn    0.16715   0.36852   0.29149   0.00000  Uiso   1.00
O195   O     0.16894   0.33479   0.24870   0.00000  Uiso   1.00
O196   O     0.17747   0.36355   0.15484   0.00000  Uiso   1.00
O197   O     0.10013   0.24730   0.22916   0.00000  Uiso   1.00
O198   O     0.23279   0.30612   0.23997   0.00000  Uiso   1.00
O199   O     0.11213   0.31533   0.16668   0.00000  Uiso   1.00
O200   O     0.24276   0.35452   0.19079   0.00000  Uiso   1.00
O201   O     0.14985   0.24741   0.27031   0.00000  Uiso   1.00
O202   O     0.19023   0.36540   0.34202   0.00000  Uiso   1.00
O203   O     0.07653   0.30643   0.25779   0.00000  Uiso   1.00
O204   O     0.20710   0.31685   0.33094   0.00000  Uiso   1.00
O205   O     0.11531   0.35485   0.30674   0.00000  Uiso   1.00
O206   O     0.19475   0.42290   0.27725   0.00000  Uiso   1.00
O207   O     0.23004   0.42288   0.21825   0.00000  Uiso   1.00
X208   C     0.14039   0.34201   0.14100   0.00000  Uiso   1.00
X209   C     0.11496   0.22765   0.25009   0.00000  Uiso   1.00
X210   C     0.25158   0.32786   0.20579   0.00000  Uiso   1.00
X211   C     0.20583   0.34401   0.35613   0.00000  Uiso   1.00
X212   C     0.07977   0.32824   0.29198   0.00000  Uiso   1.00
X213   C     0.22187   0.44256   0.24744   0.00000  Uiso   1.00
Zn214  Zn    0.36660   0.16416   0.79267   0.00000  Uiso   1.00
Zn215  Zn    0.30025   0.11480   0.72753   0.00000  Uiso   1.00
Zn216  Zn    0.30072   0.18710   0.77593   0.00000  Uiso   1.00
Zn217  Zn    0.36610   0.20310   0.70978   0.00000  Uiso   1.00
O218   O     0.33245   0.16682   0.75153   0.00000  Uiso   1.00
O219   O     0.35072   0.11207   0.80983   0.00000  Uiso   1.00
O220   O     0.24555   0.10016   0.72900   0.00000  Uiso   1.00
O221   O     0.31740   0.20631   0.83348   0.00000  Uiso   1.00
O222   O     0.30239   0.07429   0.76041   0.00000  Uiso   1.00
O223   O     0.36713   0.19059   0.84239   0.00000  Uiso   1.00
O224   O     0.24582   0.14710   0.77523   0.00000  Uiso   1.00
O225   O     0.35024   0.23925   0.69272   0.00000  Uiso   1.00
O226   O     0.31605   0.11161   0.66993   0.00000  Uiso   1.00
O227   O     0.30274   0.22975   0.74279   0.00000  Uiso   1.00
O228   O     0.36600   0.17680   0.66014   0.00000  Uiso   1.00
O229   O     0.41968   0.23290   0.72720   0.00000  Uiso   1.00
O230   O     0.42003   0.18777   0.77436   0.00000  Uiso   1.00
X231   C     0.32348   0.07679   0.79498   0.00000  Uiso   1.00
X232   C     0.22601   0.11377   0.75226   0.00000  Uiso   1.00
X233   C     0.34625   0.20661   0.85719   0.00000  Uiso   1.00
X234   C     0.32341   0.24777   0.70778   0.00000  Uiso   1.00
X235   C     0.34473   0.13979   0.64579   0.00000  Uiso   1.00
X236   C     0.43968   0.22018   0.75050   0.00000  Uiso   1.00
Zn237  Zn    0.13755   0.84008   0.20257   0.00000  Uiso   1.00
Zn238  Zn    0.14250   0.77843   0.26318   0.00000  Uiso   1.00
Zn239  Zn    0.22048   0.85707   0.23687   0.00000  Uiso   1.00
Zn240  Zn    0.15875   0.86069   0.29857   0.00000  Uiso   1.00
O241   O     0.16485   0.83406   0.25029   0.00000  Uiso   1.00
O242   O     0.09400   0.79138   0.18609   0.00000  Uiso   1.00
O243   O     0.17955   0.76111   0.25471   0.00000  Uiso   1.00
O244   O     0.23077   0.87054   0.17855   0.00000  Uiso   1.00
O245   O     0.09615   0.74480   0.23008   0.00000  Uiso   1.00
O246   O     0.16997   0.85876   0.15290   0.00000  Uiso   1.00
O247   O     0.23847   0.82035   0.24444   0.00000  Uiso   1.00
O248   O     0.20728   0.90454   0.31483   0.00000  Uiso   1.00
O249   O     0.12944   0.76746   0.32152   0.00000  Uiso   1.00
O250   O     0.25396   0.90353   0.27003   0.00000  Uiso   1.00
O251   O     0.14077   0.82784   0.34802   0.00000  Uiso   1.00
O252   O     0.12549   0.88267   0.28743   0.00000  Uiso   1.00
O253   O     0.11525   0.87290   0.21462   0.00000  Uiso   1.00
X254   C     0.07886   0.75393   0.19878   0.00000  Uiso   1.00
X255   C     0.21882   0.78102   0.24940   0.00000  Uiso   1.00
X256   C     0.20776   0.86875   0.14623   0.00000  Uiso   1.00
X257   C     0.24466   0.92038   0.30166   0.00000  Uiso   1.00
X258   C     0.13121   0.79010   0.35420   0.00000  Uiso   1.00
X259   C     0.11060   0.88755   0.25117   0.00000  Uiso   1.00
Zn260  Zn    0.63177   0.83524   0.20618   0.00000  Uiso   1.00
Zn261  Zn    0.69774   0.81338   0.22588   0.00000  Uiso   1.00
Zn262  Zn    0.69713   0.88593   0.27315   0.00000  Uiso   1.00
Zn263  Zn    0.63119   0.79765   0.29170   0.00000  Uiso   1.00
O264   O     0.66506   0.83336   0.24926   0.00000  Uiso   1.00
O265   O     0.63522   0.81191   0.15608   0.00000  Uiso   1.00
O266   O     0.75261   0.85294   0.22867   0.00000  Uiso   1.00
O267   O     0.69372   0.92569   0.24015   0.00000  Uiso   1.00
O268   O     0.68408   0.79559   0.16750   0.00000  Uiso   1.00
O269   O     0.64591   0.88706   0.19058   0.00000  Uiso   1.00
O270   O     0.75227   0.90181   0.27098   0.00000  Uiso   1.00
O271   O     0.63394   0.82388   0.34203   0.00000  Uiso   1.00
O272   O     0.69409   0.77001   0.25854   0.00000  Uiso   1.00
O273   O     0.68232   0.88939   0.33141   0.00000  Uiso   1.00
O274   O     0.64509   0.75966   0.30706   0.00000  Uiso   1.00
O275   O     0.57676   0.77088   0.27736   0.00000  Uiso   1.00
O276   O     0.57723   0.80796   0.21988   0.00000  Uiso   1.00
X277   C     0.65682   0.79646   0.14217   0.00000  Uiso   1.00
X278   C     0.77215   0.88735   0.24979   0.00000  Uiso   1.00
X279   C     0.67245   0.92255   0.20550   0.00000  Uiso   1.00
X280   C     0.65487   0.86086   0.35630   0.00000  Uiso   1.00
X281   C     0.67207   0.75114   0.29251   0.00000  Uiso   1.00
X282   C     0.55731   0.77973   0.24858   0.00000  Uiso   1.00
Zn283  Zn    0.79726   0.16449   0.70496   0.00000  Uiso   1.00
Zn284  Zn    0.81104   0.11345   0.77258   0.00000  Uiso   1.00
Zn285  Zn    0.88481   0.18617   0.72608   0.00000  Uiso   1.00
Zn286  Zn    0.83365   0.20179   0.79133   0.00000  Uiso   1.00
O287   O     0.83192   0.16617   0.74874   0.00000  Uiso   1.00
O288   O     0.75881   0.11264   0.68997   0.00000  Uiso   1.00
O289   O     0.85017   0.09740   0.77074   0.00000  Uiso   1.00
O290   O     0.88949   0.20359   0.66755   0.00000  Uiso   1.00
O291   O     0.76767   0.07382   0.73959   0.00000  Uiso   1.00
O292   O     0.82433   0.18681   0.65456   0.00000  Uiso   1.00
O293   O     0.90021   0.14681   0.72971   0.00000  Uiso   1.00
O294   O     0.88550   0.23991   0.80710   0.00000  Uiso   1.00
O295   O     0.79280   0.10999   0.83083   0.00000  Uiso   1.00
O296   O     0.92429   0.22958   0.75881   0.00000  Uiso   1.00
O297   O     0.81009   0.17552   0.84156   0.00000  Uiso   1.00
O298   O     0.80587   0.22836   0.77690   0.00000  Uiso   1.00
O299   O     0.77103   0.19300   0.71771   0.00000  Uiso   1.00
X300   C     0.74948   0.07707   0.70504   0.00000  Uiso   1.00
X301   C     0.88503   0.11224   0.75051   0.00000  Uiso   1.00
X302   C     0.86160   0.20213   0.64140   0.00000  Uiso   1.00
X303   C     0.92106   0.24841   0.79275   0.00000  Uiso   1.00
X304   C     0.79400   0.13853   0.85579   0.00000  Uiso   1.00
X305   C     0.77864   0.22053   0.74710   0.00000  Uiso   1.00
Zn306  Zn    0.83538   0.63275   0.70553   0.00000  Uiso   1.00
Zn307  Zn    0.88569   0.69755   0.77308   0.00000  Uiso   1.00
Zn308  Zn    0.81319   0.69840   0.72638   0.00000  Uiso   1.00
Zn309  Zn    0.79750   0.63160   0.79134   0.00000  Uiso   1.00
O310   O     0.83325   0.66565   0.74905   0.00000  Uiso   1.00
O311   O     0.88746   0.64693   0.69019   0.00000  Uiso   1.00
O312   O     0.90126   0.75262   0.77214   0.00000  Uiso   1.00
O313   O     0.79558   0.68528   0.66802   0.00000  Uiso   1.00
O314   O     0.92564   0.69483   0.73988   0.00000  Uiso   1.00
O315   O     0.81255   0.63697   0.65527   0.00000  Uiso   1.00
O316   O     0.85260   0.75317   0.72967   0.00000  Uiso   1.00
O317   O     0.75996   0.64585   0.80781   0.00000  Uiso   1.00
O318   O     0.88921   0.68169   0.83067   0.00000  Uiso   1.00
O319   O     0.76990   0.69463   0.75924   0.00000  Uiso   1.00
O320   O     0.82379   0.63296   0.84119   0.00000  Uiso   1.00
O321   O     0.76994   0.57758   0.77578   0.00000  Uiso   1.00
O322   O     0.80747   0.57800   0.71871   0.00000  Uiso   1.00
X323   C     0.92284   0.67366   0.70528   0.00000  Uiso   1.00
X324   C     0.88676   0.77260   0.75120   0.00000  Uiso   1.00
X325   C     0.79701   0.65871   0.64206   0.00000  Uiso   1.00
X326   C     0.75133   0.67279   0.79339   0.00000  Uiso   1.00
X327   C     0.86089   0.65362   0.85521   0.00000  Uiso   1.00
X328   C     0.77870   0.55812   0.74693   0.00000  Uiso   1.00
C329   C     0.15763   0.38485   0.02243   0.00000  Uiso   1.00
X330   C     0.11708   0.36927   0.00549   0.00000  Uiso   1.00
C331   C     0.08375   0.34215   0.03361   0.00000  Uiso   1.00
C332   C     0.09077   0.33256   0.07711   0.00000  Uiso   1.00
X333   C     0.13150   0.34937   0.09396   0.00000  Uiso   1.00
C334   C     0.16478   0.37517   0.06532   0.00000  Uiso   1.00
H335   H     0.18469   0.40366   0.00209   0.00000  Uiso   1.00
H336   H     0.05181   0.32964   0.02320   0.00000  Uiso   1.00
F337   F     0.05749   0.30767   0.10293   0.00000  Uiso   1.00
F338   F     0.20496   0.39121   0.07832   0.00000  Uiso   1.00
C339   C     0.22715   0.38382   0.47593   0.00000  Uiso   1.00
X340   C     0.25636   0.37309   0.49085   0.00000  Uiso   1.00
C341   C     0.26765   0.35067   0.46154   0.00000  Uiso   1.00
C342   C     0.25088   0.34018   0.41820   0.00000  Uiso   1.00
X343   C     0.22222   0.35188   0.40302   0.00000  Uiso   1.00
C344   C     0.21029   0.37346   0.43304   0.00000  Uiso   1.00
H345   H     0.21676   0.39998   0.49781   0.00000  Uiso   1.00
H346   H     0.29021   0.34196   0.47181   0.00000  Uiso   1.00
F347   F     0.26366   0.31966   0.39089   0.00000  Uiso   1.00
F348   F     0.18179   0.38447   0.42130   0.00000  Uiso   1.00
C349   C     0.34764   0.26329   0.96512   0.00000  Uiso   1.00
X350   C     0.37767   0.26014   0.99150   0.00000  Uiso   1.00
C351   C     0.39629   0.23866   0.97246   0.00000  Uiso   1.00
C352   C     0.38601   0.22157   0.92968   0.00000  Uiso   1.00
X353   C     0.35632   0.22506   0.90332   0.00000  Uiso   1.00
C354   C     0.33723   0.24621   0.92191   0.00000  Uiso   1.00
H355   H     0.33292   0.28033   0.97678   0.00000  Uiso   1.00
H356   H     0.41786   0.23301   0.99111   0.00000  Uiso   1.00
F357   F     0.40516   0.20089   0.91469   0.00000  Uiso   1.00
F358   F     0.30876   0.25099   0.89825   0.00000  Uiso   1.00
C359   C     0.39230   0.15622   0.52948   0.00000  Uiso   1.00
X360   C     0.37527   0.11559   0.51217   0.00000  Uiso   1.00
C361   C     0.34679   0.08262   0.53985   0.00000  Uiso   1.00
C362   C     0.33650   0.09000   0.58279   0.00000  Uiso   1.00
X363   C     0.35417   0.13076   0.59973   0.00000  Uiso   1.00
C364   C     0.38209   0.16373   0.57198   0.00000  Uiso   1.00
H365   H     0.41248   0.18319   0.50967   0.00000  Uiso   1.00
H366   H     0.33339   0.05058   0.52952   0.00000  Uiso   1.00
F367   F     0.30979   0.05696   0.60791   0.00000  Uiso   1.00
F368   F     0.39947   0.20396   0.58532   0.00000  Uiso   1.00
C369   C     0.76625   0.15699   0.97295   0.00000  Uiso   1.00
X370   C     0.74240   0.11667   0.99087   0.00000  Uiso   1.00
C371   C     0.73685   0.08313   0.96345   0.00000  Uiso   1.00
C372   C     0.75359   0.08968   0.92007   0.00000  Uiso   1.00
X373   C     0.77686   0.13016   0.90248   0.00000  Uiso   1.00
C374   C     0.78315   0.16369   0.93011   0.00000  Uiso   1.00
H375   H     0.77385   0.18431   0.99251   0.00000  Uiso   1.00
H376   H     0.71802   0.05128   0.97439   0.00000  Uiso   1.00
F377   F     0.74617   0.05617   0.89517   0.00000  Uiso   1.00
F378   F     0.80631   0.20373   0.91625   0.00000  Uiso   1.00
C379   C     0.27214   0.87315   0.04483   0.00000  Uiso   1.00
X380   C     0.25377   0.88379   0.01019   0.00000  Uiso   1.00
C381   C     0.22103   0.89106   0.02092   0.00000  Uiso   1.00
C382   C     0.20644   0.88698   0.06490   0.00000  Uiso   1.00
X383   C     0.22481   0.87618   0.09971   0.00000  Uiso   1.00
C384   C     0.25818   0.86964   0.08892   0.00000  Uiso   1.00
H385   H     0.29771   0.86782   0.03782   0.00000  Uiso   1.00
H386   H     0.20615   0.89924  -0.00501   0.00000  Uiso   1.00
F387   F     0.17440   0.89376   0.07328   0.00000  Uiso   1.00
F388   F     0.27666   0.85844   0.12074   0.00000  Uiso   1.00
C389   C     0.12734   0.72482   0.45470   0.00000  Uiso   1.00
X390   C     0.11624   0.74251   0.48961   0.00000  Uiso   1.00
C391   C     0.10896   0.77536   0.47940   0.00000  Uiso   1.00
C392   C     0.11311   0.79048   0.43568   0.00000  Uiso   1.00
X393   C     0.12410   0.77264   0.40053   0.00000  Uiso   1.00
C394   C     0.13096   0.73934   0.41079   0.00000  Uiso   1.00
H395   H     0.13282   0.69928   0.46132   0.00000  Uiso   1.00
H396   H     0.10058   0.78988   0.50556   0.00000  Uiso   1.00
F397   F     0.10611   0.82246   0.42788   0.00000  Uiso   1.00
F398   F     0.14243   0.72142   0.37861   0.00000  Uiso   1.00
C399   C     0.91834   0.26572   0.53768   0.00000  Uiso   1.00
X400   C     0.88537   0.25285   0.50701   0.00000  Uiso   1.00
C401   C     0.84569   0.22145   0.52022   0.00000  Uiso   1.00
C402   C     0.83859   0.20432   0.56299   0.00000  Uiso   1.00
X403   C     0.87117   0.21814   0.59449   0.00000  Uiso   1.00
C404   C     0.91142   0.24865   0.58089   0.00000  Uiso   1.00
H405   H     0.94936   0.28993   0.52867   0.00000  Uiso   1.00
H406   H     0.81982   0.20985   0.49720   0.00000  Uiso   1.00
F407   F     0.79942   0.17391   0.57331   0.00000  Uiso   1.00
F408   F     0.94381   0.26318   0.60977   0.00000  Uiso   1.00
C409   C     0.73325   0.65155   0.53843   0.00000  Uiso   1.00
X410   C     0.74603   0.63129   0.50789   0.00000  Uiso   1.00
C411   C     0.77733   0.62290   0.52115   0.00000  Uiso   1.00
C412   C     0.79451   0.63302   0.56387   0.00000  Uiso   1.00
X413   C     0.78081   0.65198   0.59525   0.00000  Uiso   1.00
C414   C     0.75036   0.66179   0.58161   0.00000  Uiso   1.00
H415   H     0.70913   0.65845   0.52934   0.00000  Uiso   1.00
H416   H     0.78887   0.60853   0.49819   0.00000  Uiso   1.00
F417   F     0.82487   0.62421   0.57423   0.00000  Uiso   1.00
F418   F     0.73596   0.67985   0.61038   0.00000  Uiso   1.00
C419   C     0.91789   0.64973   0.96037   0.00000  Uiso   1.00
X420   C     0.88486   0.62119   0.98799   0.00000  Uiso   1.00
C421   C     0.84424   0.60462   0.97085   0.00000  Uiso   1.00
C422   C     0.83680   0.61560   0.92870   0.00000  Uiso   1.00
X423   C     0.86985   0.64374   0.90110   0.00000  Uiso   1.00
C424   C     0.91060   0.66073   0.91779   0.00000  Uiso   1.00
H425   H     0.94994   0.66265   0.97049   0.00000  Uiso   1.00
H426   H     0.81727   0.58429   0.99057   0.00000  Uiso   1.00
F427   F     0.79657   0.59868   0.91552   0.00000  Uiso   1.00
F428   F     0.94369   0.68747   0.89276   0.00000  Uiso   1.00
C429   C     0.65674   0.73966   0.03490   0.00000  Uiso   1.00
X430   C     0.62899   0.74519   0.00710   0.00000  Uiso   1.00
C431   C     0.61276   0.76950   0.02430   0.00000  Uiso   1.00
C432   C     0.62249   0.78643   0.06709   0.00000  Uiso   1.00
X433   C     0.64903   0.77972   0.09538   0.00000  Uiso   1.00
C434   C     0.66641   0.75639   0.07832   0.00000  Uiso   1.00
H435   H     0.66976   0.72074   0.02426   0.00000  Uiso   1.00
H436   H     0.59344   0.77726   0.00420   0.00000  Uiso   1.00
F437   F     0.60582   0.80995   0.08030   0.00000  Uiso   1.00
F438   F     0.69204   0.74879   0.10383   0.00000  Uiso   1.00
C439   C     0.65278   0.91634   0.46378   0.00000  Uiso   1.00
X440   C     0.62450   0.88285   0.49108   0.00000  Uiso   1.00
C441   C     0.60799   0.84252   0.47316   0.00000  Uiso   1.00
C442   C     0.61841   0.83576   0.43044   0.00000  Uiso   1.00
X443   C     0.64594   0.86926   0.40292   0.00000  Uiso   1.00
C444   C     0.66318   0.90974   0.42052   0.00000  Uiso   1.00
H445   H     0.66585   0.94820   0.47471   0.00000  Uiso   1.00
H446   H     0.58804   0.81522   0.49265   0.00000  Uiso   1.00
F447   F     0.60145   0.79572   0.41658   0.00000  Uiso   1.00
F448   F     0.68954   0.94322   0.39573   0.00000  Uiso   1.00
C449   C     0.30057   0.55563   0.21951   0.00000  Uiso   1.00
X450   C     0.28689   0.57764   0.24603   0.00000  Uiso   1.00
C451   C     0.25148   0.55492   0.27268   0.00000  Uiso   1.00
C452   C     0.23042   0.51133   0.27324   0.00000  Uiso   1.00
X453   C     0.24419   0.48909   0.24677   0.00000  Uiso   1.00
C454   C     0.27959   0.51204   0.21969   0.00000  Uiso   1.00
H455   H     0.32749   0.57222   0.19821   0.00000  Uiso   1.00
H456   H     0.24039   0.57096   0.29381   0.00000  Uiso   1.00
F457   F     0.19638   0.49112   0.29966   0.00000  Uiso   1.00
F458   F     0.29444   0.49253   0.19361   0.00000  Uiso   1.00
C459   C     0.24825   0.69775   0.27079   0.00000  Uiso   1.00
X460   C     0.28629   0.71348   0.24797   0.00000  Uiso   1.00
C461   C     0.30187   0.75176   0.22567   0.00000  Uiso   1.00
C462   C     0.28030   0.77381   0.22631   0.00000  Uiso   1.00
X463   C     0.24208   0.75787   0.24898   0.00000  Uiso   1.00
C464   C     0.22630   0.71941   0.27115   0.00000  Uiso   1.00
H465   H     0.23563   0.66885   0.28912   0.00000  Uiso   1.00
H466   H     0.33059   0.76452   0.20698   0.00000  Uiso   1.00
F467   F     0.29646   0.81027   0.20369   0.00000  Uiso   1.00
F468   F     0.19006   0.70307   0.29422   0.00000  Uiso   1.00
C469   C     0.44429   0.69965   0.27473   0.00000  Uiso   1.00
X470   C     0.42224   0.71336   0.24835   0.00000  Uiso   1.00
C471   C     0.44490   0.74915   0.22220   0.00000  Uiso   1.00
C472   C     0.48849   0.77062   0.22210   0.00000  Uiso   1.00
X473   C     0.51077   0.75689   0.24853   0.00000  Uiso   1.00
C474   C     0.48787   0.72103   0.27500   0.00000  Uiso   1.00
H475   H     0.42774   0.67245   0.29566   0.00000  Uiso   1.00
H476   H     0.42881   0.76026   0.20118   0.00000  Uiso   1.00
F477   F     0.50866   0.80503   0.19618   0.00000  Uiso   1.00
F478   F     0.50740   0.70615   0.30101   0.00000  Uiso   1.00
C479   C     0.55210   0.30054   0.72212   0.00000  Uiso   1.00
X480   C     0.57479   0.28731   0.74808   0.00000  Uiso   1.00
C481   C     0.55275   0.25184   0.77485   0.00000  Uiso   1.00
C482   C     0.50917   0.23010   0.77582   0.00000  Uiso   1.00
X483   C     0.48624   0.24332   0.74974   0.00000  Uiso   1.00
C484   C     0.50853   0.27897   0.72279   0.00000  Uiso   1.00
H485   H     0.56812   0.32742   0.70066   0.00000  Uiso   1.00
H486   H     0.56933   0.24115   0.79571   0.00000  Uiso   1.00
F487   F     0.48968   0.19622   0.80257   0.00000  Uiso   1.00
F488   F     0.48842   0.29319   0.69674   0.00000  Uiso   1.00
C489   C     0.69772   0.25209   0.71996   0.00000  Uiso   1.00
X490   C     0.71072   0.28760   0.74654   0.00000  Uiso   1.00
C491   C     0.74625   0.30097   0.77319   0.00000  Uiso   1.00
C492   C     0.76827   0.27942   0.77347   0.00000  Uiso   1.00
X493   C     0.75534   0.24374   0.74673   0.00000  Uiso   1.00
C494   C     0.71966   0.23045   0.71985   0.00000  Uiso   1.00
H495   H     0.67070   0.24127   0.69871   0.00000  Uiso   1.00
H496   H     0.75679   0.32798   0.79442   0.00000  Uiso   1.00
F497   F     0.80243   0.29392   0.79980   0.00000  Uiso   1.00
F498   F     0.70551   0.19623   0.69365   0.00000  Uiso   1.00
C499   C     0.74568   0.44538   0.71905   0.00000  Uiso   1.00
X500   C     0.71046   0.42308   0.74610   0.00000  Uiso   1.00
C501   C     0.69767   0.44546   0.77316   0.00000  Uiso   1.00
C502   C     0.71955   0.48903   0.77346   0.00000  Uiso   1.00
X503   C     0.75504   0.51159   0.74636   0.00000  Uiso   1.00
C504   C     0.76769   0.48897   0.71900   0.00000  Uiso   1.00
H505   H     0.75604   0.42902   0.69742   0.00000  Uiso   1.00
H506   H     0.67092   0.42918   0.79476   0.00000  Uiso   1.00
F507   F     0.70564   0.50887   0.80034   0.00000  Uiso   1.00
F508   F     0.80158   0.50878   0.69230   0.00000  Uiso   1.00
C509   C     0.49826   0.34203   0.15218   0.00000  Uiso   1.00
X510   C     0.47866   0.31067   0.11978   0.00000  Uiso   1.00
C511   C     0.49864   0.28829   0.10739   0.00000  Uiso   1.00
C512   C     0.53624   0.29628   0.12742   0.00000  Uiso   1.00
X513   C     0.55465   0.32650   0.16111   0.00000  Uiso   1.00
C514   C     0.53529   0.34954   0.17286   0.00000  Uiso   1.00
H515   H     0.48499   0.36100   0.16183   0.00000  Uiso   1.00
H516   H     0.48457   0.26349   0.08314   0.00000  Uiso   1.00
F517   F     0.55329   0.27278   0.11553   0.00000  Uiso   1.00
F518   F     0.55224   0.37956   0.20454   0.00000  Uiso   1.00
C519   C     0.48703   0.20765   0.38762   0.00000  Uiso   1.00
X520   C     0.47419   0.16519   0.38301   0.00000  Uiso   1.00
C521   C     0.49927   0.15440   0.35770   0.00000  Uiso   1.00
C522   C     0.53604   0.18510   0.33739   0.00000  Uiso   1.00
X523   C     0.54854   0.22770   0.34133   0.00000  Uiso   1.00
C524   C     0.52343   0.23845   0.36699   0.00000  Uiso   1.00
H525   H     0.46833   0.21708   0.40657   0.00000  Uiso   1.00
H526   H     0.49048   0.12203   0.35376   0.00000  Uiso   1.00
F527   F     0.55862   0.17281   0.31275   0.00000  Uiso   1.00
F528   F     0.53401   0.27886   0.37236   0.00000  Uiso   1.00
C529   C     0.67989   0.19044   0.09784   0.00000  Uiso   1.00
X530   C     0.69541   0.16821   0.12147   0.00000  Uiso   1.00
C531   C     0.70415   0.17707   0.16696   0.00000  Uiso   1.00
C532   C     0.69679   0.20617   0.18856   0.00000  Uiso   1.00
X533   C     0.68066   0.22805   0.16523   0.00000  Uiso   1.00
C534   C     0.67279   0.22013   0.11931   0.00000  Uiso   1.00
H535   H     0.67242   0.18431   0.06285   0.00000  Uiso   1.00
H536   H     0.71731   0.16174   0.18612   0.00000  Uiso   1.00
F537   F     0.70655   0.21353   0.23242   0.00000  Uiso   1.00
F538   F     0.65722   0.24022   0.09533   0.00000  Uiso   1.00
C539   C     0.33959   0.49537   0.65198   0.00000  Uiso   1.00
X540   C     0.30817   0.47580   0.61964   0.00000  Uiso   1.00
C541   C     0.28623   0.49616   0.60692   0.00000  Uiso   1.00
C542   C     0.29464   0.53403   0.62666   0.00000  Uiso   1.00
X543   C     0.32490   0.55242   0.66035   0.00000  Uiso   1.00
C544   C     0.34756   0.53270   0.67232   0.00000  Uiso   1.00
H545   H     0.35828   0.48184   0.66186   0.00000  Uiso   1.00
H546   H     0.26145   0.48218   0.58264   0.00000  Uiso   1.00
F547   F     0.27150   0.55140   0.61450   0.00000  Uiso   1.00
F548   F     0.37766   0.54957   0.70393   0.00000  Uiso   1.00
C549   C     0.84588   0.33768   0.34971   0.00000  Uiso   1.00
X550   C     0.83540   0.30585   0.38152   0.00000  Uiso   1.00
C551   C     0.79304   0.28215   0.39395   0.00000  Uiso   1.00
C552   C     0.76253   0.28886   0.37431   0.00000  Uiso   1.00
X553   C     0.77332   0.32035   0.34232   0.00000  Uiso   1.00
C554   C     0.81557   0.34511   0.33084   0.00000  Uiso   1.00
H555   H     0.87785   0.35804   0.33995   0.00000  Uiso   1.00
H556   H     0.78260   0.25661   0.41717   0.00000  Uiso   1.00
F557   F     0.72223   0.26418   0.38657   0.00000  Uiso   1.00
F558   F     0.82761   0.37571   0.29997   0.00000  Uiso   1.00
C559   C     0.72378   0.51434   0.38689   0.00000  Uiso   1.00
X560   C     0.69482   0.52786   0.38117   0.00000  Uiso   1.00
C561   C     0.65861   0.50253   0.35646   0.00000  Uiso   1.00
C562   C     0.65175   0.46504   0.33740   0.00000  Uiso   1.00
X563   C     0.68136   0.45199   0.34212   0.00000  Uiso   1.00
C564   C     0.71738   0.47716   0.36755   0.00000  Uiso   1.00
H565   H     0.75211   0.53316   0.40552   0.00000  Uiso   1.00
H566   H     0.63543   0.51177   0.35186   0.00000  Uiso   1.00
F567   F     0.61675   0.44240   0.31297   0.00000  Uiso   1.00
F568   F     0.74674   0.46604   0.37368   0.00000  Uiso   1.00
C569   C     0.81232   0.48515   0.09568   0.00000  Uiso   1.00
X570   C     0.83567   0.52299   0.11889   0.00000  Uiso   1.00
C571   C     0.82731   0.52350   0.16444   0.00000  Uiso   1.00
C572   C     0.79752   0.48762   0.18643   0.00000  Uiso   1.00
X573   C     0.77442   0.44952   0.16349   0.00000  Uiso   1.00
C574   C     0.78198   0.44893   0.11755   0.00000  Uiso   1.00
H575   H     0.81796   0.48329   0.06065   0.00000  Uiso   1.00
H576   H     0.84344   0.55210   0.18332   0.00000  Uiso   1.00
F577   F     0.79074   0.49077   0.23029   0.00000  Uiso   1.00
F578   F     0.76081   0.41318   0.09390   0.00000  Uiso   1.00
C579   C     0.19538   0.68775   0.59638   0.00000  Uiso   1.00
X580   C     0.16765   0.69591   0.62105   0.00000  Uiso   1.00
C581   C     0.17158   0.69666   0.66788   0.00000  Uiso   1.00
C582   C     0.20036   0.68861   0.68906   0.00000  Uiso   1.00
X583   C     0.22729   0.67959   0.66446   0.00000  Uiso   1.00
C584   C     0.22460   0.67970   0.61762   0.00000  Uiso   1.00
H585   H     0.19381   0.68588   0.56048   0.00000  Uiso   1.00
H586   H     0.15366   0.70530   0.68913   0.00000  Uiso   1.00
F587   F     0.20237   0.69101   0.73417   0.00000  Uiso   1.00
F588   F     0.24967   0.67127   0.59214   0.00000  Uiso   1.00
C589   C     0.15537   0.49075   0.84771   0.00000  Uiso   1.00
X590   C     0.16618   0.46955   0.87939   0.00000  Uiso   1.00
C591   C     0.20873   0.48808   0.89100   0.00000  Uiso   1.00
C592   C     0.23904   0.52515   0.87094   0.00000  Uiso   1.00
X593   C     0.22788   0.54583   0.83930   0.00000  Uiso   1.00
C594   C     0.18549   0.52836   0.82844   0.00000  Uiso   1.00
H595   H     0.12327   0.47917   0.83849   0.00000  Uiso   1.00
H596   H     0.21938   0.47301   0.91402   0.00000  Uiso   1.00
F597   F     0.27948   0.54076   0.88260   0.00000  Uiso   1.00
F598   F     0.17312   0.54691   0.79793   0.00000  Uiso   1.00
C599   C     0.48745   0.80931   0.59695   0.00000  Uiso   1.00
X600   C     0.52504   0.83151   0.62091   0.00000  Uiso   1.00
C601   C     0.52452   0.82252   0.66641   0.00000  Uiso   1.00
C602   C     0.48787   0.79333   0.68769   0.00000  Uiso   1.00
X603   C     0.45001   0.77151   0.66405   0.00000  Uiso   1.00
C604   C     0.45045   0.77955   0.61811   0.00000  Uiso   1.00
H605   H     0.48638   0.81551   0.56193   0.00000  Uiso   1.00
H606   H     0.55285   0.83778   0.68583   0.00000  Uiso   1.00
F607   F     0.48998   0.78587   0.73158   0.00000  Uiso   1.00
F608   F     0.41497   0.75953   0.59383   0.00000  Uiso   1.00
C609   C     0.27986   0.78959   0.89496   0.00000  Uiso   1.00
X610   C     0.30228   0.83186   0.88186   0.00000  Uiso   1.00
C611   C     0.33326   0.84260   0.84890   0.00000  Uiso   1.00
C612   C     0.34110   0.81268   0.82966   0.00000  Uiso   1.00
X613   C     0.31756   0.77049   0.84183   0.00000  Uiso   1.00
C614   C     0.28688   0.75941   0.87488   0.00000  Uiso   1.00
H615   H     0.25504   0.77894   0.91914   0.00000  Uiso   1.00
H616   H     0.35273   0.87456   0.83853   0.00000  Uiso   1.00
F617   F     0.37088   0.82501   0.79780   0.00000  Uiso   1.00
F618   F     0.26338   0.71915   0.88783   0.00000  Uiso   1.00
C619   C     0.50277   0.65877   0.85551   0.00000  Uiso   1.00
X620   C     0.52781   0.69500   0.88031   0.00000  Uiso   1.00
C621   C     0.51397   0.72372   0.88593   0.00000  Uiso   1.00
C622   C     0.47669   0.71700   0.86657   0.00000  Uiso   1.00
X623   C     0.45174   0.68091   0.84115   0.00000  Uiso   1.00
C624   C     0.46519   0.65161   0.83638   0.00000  Uiso   1.00
H625   H     0.51226   0.63577   0.85096   0.00000  Uiso   1.00
H626   H     0.53257   0.75206   0.90461   0.00000  Uiso   1.00
F627   F     0.46524   0.74612   0.87271   0.00000  Uiso   1.00
F628   F     0.44281   0.61655   0.81195   0.00000  Uiso   1.00
C629   C     0.02746   0.91731   0.22952   0.00000  Uiso   1.00
X630   C     0.04338   0.95601   0.25159   0.00000  Uiso   1.00
C631   C     0.08200   0.97139   0.27369   0.00000  Uiso   1.00
C632   C     0.10327   0.94892   0.27430   0.00000  Uiso   1.00
X633   C     0.08747   0.91090   0.25147   0.00000  Uiso   1.00
C634   C     0.04944   0.89555   0.22877   0.00000  Uiso   1.00
H635   H    -0.00130   0.90436   0.21090   0.00000  Uiso   1.00
H636   H     0.09531   1.00015   0.29234   0.00000  Uiso   1.00
F637   F     0.13990   0.96489   0.29658   0.00000  Uiso   1.00
F638   F     0.03305   0.85896   0.20636   0.00000  Uiso   1.00
C639   C     0.08580   0.11390   0.26966   0.00000  Uiso   1.00
X640   C     0.04492   0.09094   0.25235   0.00000  Uiso   1.00
C641   C     0.02776   0.11439   0.23455   0.00000  Uiso   1.00
C642   C     0.05015   0.15813   0.23373   0.00000  Uiso   1.00
X643   C     0.09094   0.18071   0.25096   0.00000  Uiso   1.00
C644   C     0.10827   0.15766   0.26910   0.00000  Uiso   1.00
H645   H     0.10053   0.09844   0.28546   0.00000  Uiso   1.00
H646   H    -0.00262   0.09932   0.21919   0.00000  Uiso   1.00
F647   F     0.03147   0.17815   0.21572   0.00000  Uiso   1.00
F648   F     0.14722   0.17726   0.28653   0.00000  Uiso   1.00
C649   C     0.88567   0.96972   0.27475   0.00000  Uiso   1.00
X650   C     0.90838   0.95617   0.24910   0.00000  Uiso   1.00
C651   C     0.88577   0.91977   0.22364   0.00000  Uiso   1.00
C652   C     0.84201   0.89757   0.22378   0.00000  Uiso   1.00
X653   C     0.81912   0.91109   0.24958   0.00000  Uiso   1.00
C654   C     0.84190   0.94774   0.27507   0.00000  Uiso   1.00
H655   H     0.90180   0.99715   0.29542   0.00000  Uiso   1.00
H656   H     0.90200   0.90858   0.20297   0.00000  Uiso   1.00
F657   F     0.82231   0.86289   0.19820   0.00000  Uiso   1.00
F658   F     0.82207   0.96243   0.30086   0.00000  Uiso   1.00
C659   C     0.11254   0.08603   0.76984   0.00000  Uiso   1.00
X660   C     0.08944   0.04499   0.75302   0.00000  Uiso   1.00
C661   C     0.11271   0.02732   0.73600   0.00000  Uiso   1.00
C662   C     0.15643   0.04934   0.73562   0.00000  Uiso   1.00
X663   C     0.17913   0.09019   0.75258   0.00000  Uiso   1.00
C664   C     0.15630   0.10809   0.76981   0.00000  Uiso   1.00
H665   H     0.09720   0.10119   0.78495   0.00000  Uiso   1.00
H666   H     0.09751  -0.00322   0.72099   0.00000  Uiso   1.00
F667   F     0.17637   0.03018   0.71857   0.00000  Uiso   1.00
F668   F     0.17612   0.14726   0.78666   0.00000  Uiso   1.00
C669   C     0.96771   0.08130   0.72722   0.00000  Uiso   1.00
X670   C     0.95372   0.04482   0.75256   0.00000  Uiso   1.00
C671   C     0.91677   0.03064   0.77713   0.00000  Uiso   1.00
C672   C     0.89453   0.05215   0.77655   0.00000  Uiso   1.00
X673   C     0.90860   0.08889   0.75118   0.00000  Uiso   1.00
C674   C     0.94571   0.10303   0.72646   0.00000  Uiso   1.00
H675   H     0.99556   0.09287   0.70719   0.00000  Uiso   1.00
H676   H     0.90523   0.00301   0.79752   0.00000  Uiso   1.00
F677   F     0.85933   0.03690   0.80131   0.00000  Uiso   1.00
F678   F     0.96092   0.13781   0.70103   0.00000  Uiso   1.00
C679   C     0.96842   0.88598   0.77752   0.00000  Uiso   1.00
X680   C     0.95450   0.90871   0.75248   0.00000  Uiso   1.00
C681   C     0.91804   0.88619   0.72714   0.00000  Uiso   1.00
C682   C     0.89616   0.84247   0.72668   0.00000  Uiso   1.00
X683   C     0.91011   0.81952   0.75176   0.00000  Uiso   1.00
C684   C     0.94676   0.84222   0.77725   0.00000  Uiso   1.00
H685   H     0.99596   0.90208   0.79804   0.00000  Uiso   1.00
H686   H     0.90660   0.90247   0.70690   0.00000  Uiso   1.00
F687   F     0.86141   0.82284   0.70120   0.00000  Uiso   1.00
F688   F     0.96182   0.82232   0.80237   0.00000  Uiso   1.00
C689   C     0.32133   0.32694   0.11278   0.00000  Uiso   1.00
X690   C     0.34056   0.30659   0.13248   0.00000  Uiso   1.00
C691   C     0.33112   0.29402   0.17722   0.00000  Uiso   1.00
C692   C     0.30264   0.30099   0.20136   0.00000  Uiso   1.00
X693   C     0.28325   0.32139   0.18146   0.00000  Uiso   1.00
C694   C     0.29333   0.33443   0.13671   0.00000  Uiso   1.00
H695   H     0.32822   0.33743   0.07859   0.00000  Uiso   1.00
H696   H     0.34526   0.27807   0.19334   0.00000  Uiso   1.00
F697   F     0.29431   0.28790   0.24424   0.00000  Uiso   1.00
F698   F     0.27535   0.35363   0.11530   0.00000  Uiso   1.00
C699   C    -0.03308   0.29511   0.32134   0.00000  Uiso   1.00
X700   C    -0.02969   0.30692   0.36636   0.00000  Uiso   1.00
C701   C     0.00988   0.32666   0.38601   0.00000  Uiso   1.00
C702   C     0.04518   0.33427   0.36169   0.00000  Uiso   1.00
X703   C     0.04193   0.32189   0.31665   0.00000  Uiso   1.00
C704   C     0.00216   0.30217   0.29681   0.00000  Uiso   1.00
H705   H    -0.06325   0.27956   0.30533   0.00000  Uiso   1.00
H706   H     0.01357   0.33643   0.42048   0.00000  Uiso   1.00
F707   F     0.08242   0.35276   0.38299   0.00000  Uiso   1.00
F708   F    -0.00280   0.28977   0.25367   0.00000  Uiso   1.00
C709   C     0.29515   1.01698   0.37547   0.00000  Uiso   1.00
X710   C     0.33765   1.02974   0.37299   0.00000  Uiso   1.00
C711   C     0.34981   1.00725   0.34502   0.00000  Uiso   1.00
C712   C     0.32011   0.97224   0.32115   0.00000  Uiso   1.00
X713   C     0.27729   0.95886   0.32464   0.00000  Uiso   1.00
C714   C     0.26546   0.98228   0.35186   0.00000  Uiso   1.00
H715   H     0.28470   1.03422   0.39554   0.00000  Uiso   1.00
H716   H     0.38231   1.01620   0.34237   0.00000  Uiso   1.00
F717   F     0.33335   0.95098   0.29562   0.00000  Uiso   1.00
F718   F     0.22499   0.97202   0.35562   0.00000  Uiso   1.00
C719   C     0.70627   1.03545   0.17568   0.00000  Uiso   1.00
X720   C     0.69391   1.03195   0.13083   0.00000  Uiso   1.00
C721   C     0.67393   0.99233   0.11131   0.00000  Uiso   1.00
C722   C     0.66647   0.95707   0.13566   0.00000  Uiso   1.00
X723   C     0.67917   0.96042   0.18061   0.00000  Uiso   1.00
C724   C     0.69930   1.00027   0.20024   0.00000  Uiso   1.00
H725   H     0.72204   1.06564   0.19162   0.00000  Uiso   1.00
H726   H     0.66369   0.98851   0.07701   0.00000  Uiso   1.00
F727   F     0.64760   0.91976   0.11452   0.00000  Uiso   1.00
F728   F     0.71206   1.00536   0.24326   0.00000  Uiso   1.00
C729   C     0.29016   0.32774   0.67883   0.00000  Uiso   1.00
X730   C     0.30226   0.33658   0.63390   0.00000  Uiso   1.00
C731   C     0.32157   0.31637   0.61405   0.00000  Uiso   1.00
C732   C     0.32861   0.28811   0.63803   0.00000  Uiso   1.00
X733   C     0.31624   0.27879   0.68303   0.00000  Uiso   1.00
C734   C     0.29674   0.29902   0.70307   0.00000  Uiso   1.00
H735   H     0.27495   0.34259   0.69507   0.00000  Uiso   1.00
H736   H     0.33168   0.32273   0.57971   0.00000  Uiso   1.00
F737   F     0.34692   0.26930   0.61649   0.00000  Uiso   1.00
F738   F     0.28435   0.29144   0.74620   0.00000  Uiso   1.00
C739   C     0.28909  -0.03680   0.82285   0.00000  Uiso   1.00
X740   C     0.30106  -0.03402   0.86775   0.00000  Uiso   1.00
C741   C     0.32096   0.00537   0.88792   0.00000  Uiso   1.00
C742   C     0.32859   0.04102   0.86426   0.00000  Uiso   1.00
X743   C     0.31616   0.03841   0.81934   0.00000  Uiso   1.00
C744   C     0.29621  -0.00118   0.79897   0.00000  Uiso   1.00
H745   H     0.27347  -0.06675   0.80641   0.00000  Uiso   1.00
H746   H     0.33093   0.00867   0.92228   0.00000  Uiso   1.00
F747   F     0.34736   0.07802   0.88602   0.00000  Uiso   1.00
F748   F     0.28382  -0.00555   0.75586   0.00000  Uiso   1.00
C749   C    -0.01730   0.70218   0.12439   0.00000  Uiso   1.00
X750   C    -0.02926   0.65987   0.12676   0.00000  Uiso   1.00
C751   C    -0.00633   0.64827   0.15475   0.00000  Uiso   1.00
C752   C     0.02825   0.67832   0.17883   0.00000  Uiso   1.00
X753   C     0.04079   0.72095   0.17555   0.00000  Uiso   1.00
C754   C     0.01700   0.73224   0.14821   0.00000  Uiso   1.00
H755   H    -0.03489   0.71218   0.10426   0.00000  Uiso   1.00
H756   H    -0.01465   0.61593   0.15730   0.00000  Uiso   1.00
F757   F     0.04994   0.66559   0.20440   0.00000  Uiso   1.00
F758   F     0.02650   0.77249   0.14457   0.00000  Uiso   1.00
C759   C     1.03625   0.70830   0.67673   0.00000  Uiso   1.00
X760   C     1.03335   0.69652   0.63174   0.00000  Uiso   1.00
C761   C     0.99391   0.67655   0.61173   0.00000  Uiso   1.00
C762   C     0.95830   0.66860   0.63570   0.00000  Uiso   1.00
X763   C     0.96105   0.68077   0.68075   0.00000  Uiso   1.00
C764   C     1.00070   0.70085   0.70091   0.00000  Uiso   1.00
H765   H     1.06626   0.72394   0.69307   0.00000  Uiso   1.00
H766   H     0.99051   0.66667   0.57733   0.00000  Uiso   1.00
F767   F     0.92121   0.64977   0.61411   0.00000  Uiso   1.00
F768   F     1.00523   0.71309   0.74408   0.00000  Uiso   1.00
C769   C     1.03411   0.32732   0.82214   0.00000  Uiso   1.00
X770   C     1.03084   0.33625   0.86701   0.00000  Uiso   1.00
C771   C     0.99125   0.31690   0.88665   0.00000  Uiso   1.00
C772   C     0.95581   0.28929   0.86238   0.00000  Uiso   1.00
X773   C     0.95897   0.27975   0.81747   0.00000  Uiso   1.00
C774   C     0.99877   0.29925   0.79770   0.00000  Uiso   1.00
H775   H     1.06426   0.34150   0.80613   0.00000  Uiso   1.00
H776   H     0.98765   0.32335   0.92100   0.00000  Uiso   1.00
F777   F     0.91853   0.27105   0.88358   0.00000  Uiso   1.00
F778   F     1.00367   0.29142   0.75468   0.00000  Uiso   1.00
C779   C     0.70531   0.67144   0.32158   0.00000  Uiso   1.00
X780   C     0.69330   0.66278   0.36651   0.00000  Uiso   1.00
C781   C     0.67337   0.68243   0.38619   0.00000  Uiso   1.00
C782   C     0.66586   0.71024   0.36199   0.00000  Uiso   1.00
X783   C     0.67848   0.71965   0.31707   0.00000  Uiso   1.00
C784   C     0.69834   0.69975   0.29717   0.00000  Uiso   1.00
H785   H     0.72097   0.65695   0.30555   0.00000  Uiso   1.00
H786   H     0.66341   0.67614   0.42058   0.00000  Uiso   1.00
F787   F     0.64719   0.72880   0.38332   0.00000  Uiso   1.00
F788   F     0.71092   0.70743   0.25410   0.00000  Uiso   1.00
C789   C     0.66919  -0.03574   0.67582   0.00000  Uiso   1.00
X790   C     0.66034  -0.03233   0.63093   0.00000  Uiso   1.00
C791   C     0.68029   0.00725   0.61127   0.00000  Uiso   1.00
C792   C     0.70841   0.04249   0.63545   0.00000  Uiso   1.00
X793   C     0.71784   0.03922   0.68038   0.00000  Uiso   1.00
C794   C     0.69775  -0.00057   0.70021   0.00000  Uiso   1.00
H795   H     0.65453  -0.06588   0.69189   0.00000  Uiso   1.00
H796   H     0.67390   0.01103   0.57695   0.00000  Uiso   1.00
F797   F     0.72713   0.07971   0.61412   0.00000  Uiso   1.00
F798   F     0.70545  -0.00560   0.74323   0.00000  Uiso   1.00
C799   C     0.68259   0.67399   0.88724   0.00000  Uiso   1.00
X800   C     0.66296   0.69396   0.86761   0.00000  Uiso   1.00
C801   C     0.67183   0.70620   0.82274   0.00000  Uiso   1.00
C802   C     0.70015   0.69928   0.79834   0.00000  Uiso   1.00
X803   C     0.71996   0.67928   0.81814   0.00000  Uiso   1.00
C804   C     0.71046   0.66654   0.86303   0.00000  Uiso   1.00
H805   H     0.67617   0.66386   0.92157   0.00000  Uiso   1.00
H806   H     0.65740   0.72193   0.80673   0.00000  Uiso   1.00
F807   F     0.70791   0.71201   0.75532   0.00000  Uiso   1.00
F808   F     0.72893   0.64773   0.88425   0.00000  Uiso   1.00
loop_
_geom_bond_atom_site_label_1
_geom_bond_atom_site_label_2
_geom_bond_distance
_geom_bond_site_symmetry_2
_ccdc_geom_bond_type
X1     C2      1.419   .     A
X1     C6      1.416   .     A
X1     X630    1.436   1_655 A
C2     X3      1.421   .     A
C2     H7      1.079   .     S
X3     C4      1.420   .     A
X3     X640    1.443   1_665 A
C4     X5      1.412   .     A
C4     H8      1.080   .     S
X5     C6      1.410   .     A
X5     X650    1.510   .     S
C6     H9      1.082   .     S
X10    C11     1.421   .     A
X10    C15     1.421   .     A
X10    X660    1.442   1_665 A
C11    X12     1.413   .     A
C11    H16     1.080   .     S
X12    C13     1.410   .     A
X12    X670    1.508   1_565 S
C13    X14     1.410   .     A
C13    H17     1.082   .     S
X14    C15     1.413   .     A
X14    X680    1.508   .     S
C15    H18     1.080   .     S
X19    C20     1.407   .     A
X19    C24     1.409   .     A
X19    X450    1.495   .     S
C20    X21     1.407   .     A
C20    H25     1.083   .     S
X21    C22     1.408   .     A
X21    X470    1.494   .     S
C22    X23     1.410   .     A
C22    H26     1.083   .     S
X23    C24     1.411   .     A
X23    X460    1.500   .     S
C24    H27     1.083   .     S
X28    C29     1.408   .     A
X28    C33     1.408   .     A
X28    X480    1.494   .     S
C29    X30     1.408   .     A
C29    H34     1.083   .     S
X30    C31     1.407   .     A
X30    X500    1.493   .     S
C31    X32     1.408   .     A
C31    H35     1.083   .     S
X32    C33     1.408   .     A
X32    X490    1.493   .     S
C33    H36     1.083   .     S
X37    C38     1.418   .     A
X37    C42     1.423   .     A
X37    X350    1.440   1_554 A
C38    X39     1.411   .     A
C38    H43     1.081   .     S
X39    C40     1.407   .     A
X39    X690    1.501   .     S
C40    X41     1.412   .     A
C40    H44     1.082   .     S
X41    C42     1.413   .     A
X41    X510    1.512   .     S
C42    H45     1.080   .     S
X46    C47     1.421   .     A
X46    C51     1.417   .     A
X46    X360    1.439   1_565 A
C47    X48     1.410   .     A
C47    H52     1.081   .     S
X48    C49     1.408   .     A
X48    X520    1.502   1_565 S
C49    X50     1.409   .     A
C49    H53     1.083   .     S
X50    C51     1.413   .     A
X50    X710    1.502   .     S
C51    H54     1.080   .     S
X55    C56     1.418   .     A
X55    C60     1.425   .     A
X55    X370    1.439   1_564 A
C56    X57     1.411   .     A
C56    H61     1.081   .     S
X57    C58     1.404   .     A
X57    X720    1.498   .     S
C58    X59     1.408   .     A
C58    H62     1.083   .     S
X59    C60     1.412   .     A
X59    X530    1.507   1_565 S
C60    H63     1.080   .     S
X64    C65     1.415   .     A
X64    C69     1.408   .     A
X64    X340    1.505   .     S
C65    X66     1.415   .     A
C65    H70     1.082   .     S
X66    C67     1.416   .     A
X66    X540    1.513   .     S
C67    X68     1.411   .     A
C67    H71     1.082   .     S
X68    C69     1.410   .     A
X68    X730    1.501   .     S
C69    H72     1.083   .     S
X73    C74     1.407   .     A
X73    C78     1.416   .     A
X73    X390    1.502   1_655 S
C74    X75     1.405   .     A
C74    H79     1.083   .     S
X75    C76     1.406   .     A
X75    X760    1.500   .     S
C76    X77     1.422   .     A
C76    H80     1.080   .     S
X77    C78     1.423   .     A
X77    X580    1.441   1_655 A
C78    H81     1.081   .     S
X82    C83     1.415   .     A
X82    C87     1.422   .     A
X82    X330    1.438   1_656 A
C83    X84     1.410   .     A
C83    H88     1.081   .     S
X84    C85     1.407   .     A
X84    X770    1.499   .     S
C85    X86     1.414   .     A
C85    H89     1.082   .     S
X86    C87     1.418   .     A
X86    X590    1.435   1_655 A
C87    H90     1.080   .     S
X91    C92     1.407   .     A
X91    C96     1.413   .     A
X91    X400    1.504   1_455 S
C92    X93     1.409   .     A
C92    H97     1.083   .     S
X93    C94     1.409   .     A
X93    X700    1.497   .     S
C94    X95     1.418   .     A
C94    H98     1.082   .     S
X95    C96     1.419   .     A
X95    X550    1.435   1_455 A
C96    H99     1.081   .     S
X100   C101    1.412   .     A
X100   C105    1.409   .     A
X100   X410    1.502   .     S
C101   X102    1.410   .     A
C101   H106    1.083   .     S
X102   C103    1.410   .     A
X102   X560    1.501   .     S
C103   X104    1.410   .     A
C103   H107    1.083   .     S
X104   C105    1.412   .     A
X104   X780    1.497   .     S
C105   H108    1.083   .     S
X109   C110    1.424   .     A
X109   C114    1.416   .     A
X109   X420    1.439   1_454 A
C110   X111    1.413   .     A
C110   H115    1.080   .     S
X111   C112    1.411   .     A
X111   X570    1.509   1_455 S
C112   X113    1.406   .     A
C112   H116    1.082   .     S
X113   C114    1.410   .     A
X113   X750    1.501   .     S
C114   H117    1.080   .     S
X118   C119    1.418   .     A
X118   C123    1.425   .     A
X118   X440    1.439   1_545 A
C119   X120    1.411   .     A
C119   H124    1.081   .     S
X120   C121    1.405   .     A
X120   X790    1.500   .     S
C121   X122    1.410   .     A
C121   H125    1.083   .     S
X122   C123    1.412   .     A
X122   X600    1.509   1_545 S
C123   H126    1.080   .     S
X127   C128    1.413   .     A
X127   C132    1.406   .     A
X127   X380    1.502   1_546 S
C128   X129    1.421   .     A
C128   H133    1.082   .     S
X129   C130    1.421   .     A
X129   X610    1.437   1_545 A
C130   X131    1.410   .     A
C130   H134    1.081   .     S
X131   C132    1.408   .     A
X131   X740    1.500   .     S
C132   H135    1.083   .     S
X136   C137    1.421   .     A
X136   C141    1.417   .     A
X136   X430    1.437   1_556 A
C137   X138    1.409   .     A
C137   H142    1.081   .     S
X138   C139    1.407   .     A
X138   X620    1.501   .     S
C139   X140    1.408   .     A
C139   H143    1.083   .     S
X140   C141    1.413   .     A
X140   X800    1.498   .     S
C141   H144    1.081   .     S
Zn145  O149    1.832   .     S
Zn145  O150    1.809   .     S
Zn145  O154    1.791   .     S
Zn145  O161    1.819   .     S
Zn146  O149    1.830   .     S
Zn146  O151    1.789   .     S
Zn146  O153    1.819   .     S
Zn146  O157    1.806   .     S
Zn147  O149    1.858   .     S
Zn147  O152    1.841   .     S
Zn147  O155    1.848   .     S
Zn147  O158    1.840   .     S
Zn148  O149    1.834   .     S
Zn148  O156    1.797   .     S
Zn148  O159    1.821   .     S
Zn148  O160    1.814   .     S
O150   X162    1.272   .     A
O151   X163    1.270   .     A
O152   X164    1.278   .     A
O153   X162    1.274   .     A
O154   X164    1.271   .     A
O155   X163    1.279   .     A
O156   X165    1.272   .     A
O157   X166    1.272   .     A
O158   X165    1.279   .     A
O159   X166    1.275   .     A
O160   X167    1.274   .     A
O161   X167    1.274   .     A
X162   X553    1.496   .     S
X163   X573    1.503   .     S
X164   X533    1.501   .     S
X165   X513    1.497   .     S
X166   X563    1.500   .     S
X167   X523    1.502   .     S
Zn168  O172    1.833   .     S
Zn168  O173    1.798   .     S
Zn168  O177    1.812   .     S
Zn168  O184    1.819   .     S
Zn169  O172    1.858   .     S
Zn169  O174    1.846   .     S
Zn169  O176    1.844   .     S
Zn169  O180    1.848   .     S
Zn170  O172    1.829   .     S
Zn170  O175    1.819   .     S
Zn170  O178    1.791   .     S
Zn170  O181    1.814   .     S
Zn171  O172    1.828   .     S
Zn171  O179    1.822   .     S
Zn171  O182    1.788   .     S
Zn171  O183    1.807   .     S
O173   X185    1.272   .     A
O174   X186    1.279   .     A
O175   X187    1.275   .     A
O176   X185    1.280   .     A
O177   X187    1.273   .     A
O178   X186    1.272   .     A
O179   X188    1.275   .     A
O180   X189    1.279   .     A
O181   X188    1.273   .     A
O182   X189    1.271   .     A
O183   X190    1.273   .     A
O184   X190    1.274   .     A
X185   X543    1.499   .     S
X186   X583    1.507   .     S
X187   X593    1.497   .     S
X188   X613    1.499   .     S
X189   X603    1.502   .     S
X190   X623    1.501   .     S
Zn191  O195    1.820   .     S
Zn191  O196    1.776   .     S
Zn191  O200    1.794   .     S
Zn191  O207    1.806   .     S
Zn192  O195    1.851   .     S
Zn192  O197    1.821   .     S
Zn192  O199    1.856   .     S
Zn192  O203    1.833   .     S
Zn193  O195    1.851   .     S
Zn193  O198    1.835   .     S
Zn193  O201    1.827   .     S
Zn193  O204    1.857   .     S
Zn194  O195    1.819   .     S
Zn194  O202    1.776   .     S
Zn194  O205    1.788   .     S
Zn194  O206    1.800   .     S
O196   X208    1.268   .     A
O197   X209    1.278   .     A
O198   X210    1.277   .     A
O199   X208    1.280   .     A
O200   X210    1.271   .     A
O201   X209    1.279   .     A
O202   X211    1.268   .     A
O203   X212    1.276   .     A
O204   X211    1.281   .     A
O205   X212    1.269   .     A
O206   X213    1.270   .     A
O207   X213    1.272   .     A
X208   X333    1.507   .     S
X209   X643    1.510   .     S
X210   X693    1.502   .     S
X211   X343    1.505   .     S
X212   X703    1.499   .     S
X213   X453    1.497   .     S
Zn214  O218    1.809   .     S
Zn214  O219    1.793   .     S
Zn214  O223    1.782   .     S
Zn214  O230    1.808   .     S
Zn215  O218    1.836   .     S
Zn215  O220    1.821   .     S
Zn215  O222    1.834   .     S
Zn215  O226    1.851   .     S
Zn216  O218    1.838   .     S
Zn216  O221    1.855   .     S
Zn216  O224    1.826   .     S
Zn216  O227    1.840   .     S
Zn217  O218    1.807   .     S
Zn217  O225    1.789   .     S
Zn217  O228    1.782   .     S
Zn217  O229    1.804   .     S
O219   X231    1.270   .     A
O220   X232    1.279   .     A
O221   X233    1.282   .     A
O222   X231    1.276   .     A
O223   X233    1.270   .     A
O224   X232    1.280   .     A
O225   X234    1.270   .     A
O226   X235    1.281   .     A
O227   X234    1.277   .     A
O228   X235    1.270   .     A
O229   X236    1.271   .     A
O230   X236    1.272   .     A
X231   X743    1.501   .     S
X232   X663    1.507   .     S
X233   X353    1.508   .     S
X234   X733    1.502   .     S
X235   X363    1.506   .     S
X236   X483    1.497   .     S
Zn237  O241    1.833   .     S
Zn237  O242    1.790   .     S
Zn237  O246    1.823   .     S
Zn237  O253    1.819   .     S
Zn238  O241    1.842   .     S
Zn238  O243    1.804   .     S
Zn238  O245    1.833   .     S
Zn238  O249    1.810   .     S
Zn239  O241    1.842   .     S
Zn239  O244    1.810   .     S
Zn239  O247    1.807   .     S
Zn239  O250    1.836   .     S
Zn240  O241    1.832   .     S
Zn240  O248    1.789   .     S
Zn240  O251    1.824   .     S
Zn240  O252    1.820   .     S
O242   X254    1.270   .     A
O243   X255    1.273   .     A
O244   X256    1.273   .     A
O245   X254    1.277   .     A
O246   X256    1.275   .     A
O247   X255    1.273   .     A
O248   X257    1.270   .     A
O249   X258    1.273   .     A
O250   X257    1.277   .     A
O251   X258    1.276   .     A
O252   X259    1.275   .     A
O253   X259    1.275   .     A
X254   X753    1.501   .     S
X255   X463    1.493   .     S
X256   X383    1.502   .     S
X257   X713    1.502   .     S
X258   X393    1.503   .     S
X259   X633    1.495   .     S
Zn260  O264    1.815   .     S
Zn260  O265    1.773   .     S
Zn260  O269    1.785   .     S
Zn260  O276    1.801   .     S
Zn261  O264    1.848   .     S
Zn261  O266    1.823   .     S
Zn261  O268    1.854   .     S
Zn261  O272    1.832   .     S
Zn262  O264    1.849   .     S
Zn262  O267    1.834   .     S
Zn262  O270    1.826   .     S
Zn262  O273    1.859   .     S
Zn263  O264    1.816   .     S
Zn263  O271    1.774   .     S
Zn263  O274    1.788   .     S
Zn263  O275    1.803   .     S
O265   X277    1.267   .     A
O266   X278    1.278   .     A
O267   X279    1.277   .     A
O268   X277    1.280   .     A
O269   X279    1.269   .     A
O270   X278    1.279   .     A
O271   X280    1.267   .     A
O272   X281    1.276   .     A
O273   X280    1.281   .     A
O274   X281    1.270   .     A
O275   X282    1.271   .     A
O276   X282    1.270   .     A
X277   X433    1.506   .     S
X278   X653    1.510   .     S
X279   X723    1.499   .     S
X280   X443    1.508   .     S
X281   X783    1.499   .     S
X282   X473    1.496   .     S
Zn283  O287    1.820   .     S
Zn283  O288    1.789   .     S
Zn283  O292    1.777   .     S
Zn283  O299    1.802   .     S
Zn284  O287    1.852   .     S
Zn284  O289    1.826   .     S
Zn284  O291    1.836   .     S
Zn284  O295    1.858   .     S
Zn285  O287    1.848   .     S
Zn285  O290    1.852   .     S
Zn285  O293    1.820   .     S
Zn285  O296    1.831   .     S
Zn286  O287    1.818   .     S
Zn286  O294    1.791   .     S
Zn286  O297    1.773   .     S
Zn286  O298    1.801   .     S
O288   X300    1.269   .     A
O289   X301    1.279   .     A
O290   X302    1.279   .     A
O291   X300    1.277   .     A
O292   X302    1.268   .     A
O293   X301    1.278   .     A
O294   X303    1.270   .     A
O295   X304    1.281   .     A
O296   X303    1.276   .     A
O297   X304    1.267   .     A
O298   X305    1.271   .     A
O299   X305    1.271   .     A
X300   X793    1.501   .     S
X301   X673    1.509   .     S
X302   X403    1.502   .     S
X303   X773    1.500   .     S
X304   X373    1.507   .     S
X305   X493    1.496   .     S
Zn306  O310    1.818   .     S
Zn306  O311    1.792   .     S
Zn306  O315    1.777   .     S
Zn306  O322    1.805   .     S
Zn307  O310    1.847   .     S
Zn307  O312    1.826   .     S
Zn307  O314    1.832   .     S
Zn307  O318    1.854   .     S
Zn308  O310    1.845   .     S
Zn308  O313    1.850   .     S
Zn308  O316    1.820   .     S
Zn308  O319    1.831   .     S
Zn309  O310    1.816   .     S
Zn309  O317    1.790   .     S
Zn309  O320    1.775   .     S
Zn309  O321    1.799   .     S
O311   X323    1.270   .     A
O312   X324    1.279   .     A
O313   X325    1.279   .     A
O314   X323    1.276   .     A
O315   X325    1.268   .     A
O316   X324    1.278   .     A
O317   X326    1.270   .     A
O318   X327    1.280   .     A
O319   X326    1.276   .     A
O320   X327    1.268   .     A
O321   X328    1.271   .     A
O322   X328    1.272   .     A
X323   X763    1.500   .     S
X324   X683    1.509   .     S
X325   X413    1.501   .     S
X326   X803    1.499   .     S
X327   X423    1.506   .     S
X328   X503    1.496   .     S
C329   X330    1.411   .     A
C329   C334    1.399   .     A
C329   H335    1.081   .     S
X330   C331    1.419   .     A
X330   X82     1.438   1_454 A
C331   C332    1.413   .     A
C331   H336    1.081   .     S
C332   X333    1.410   .     A
C332   F337    1.357   .     S
X333   C334    1.415   .     A
C334   F338    1.358   .     S
C339   X340    1.403   .     A
C339   C344    1.400   .     A
C339   H345    1.083   .     S
X340   C341    1.412   .     A
C341   C342    1.412   .     A
C341   H346    1.083   .     S
C342   X343    1.411   .     A
C342   F347    1.357   .     S
X343   C344    1.417   .     A
C344   F348    1.358   .     S
C349   X350    1.420   .     A
C349   C354    1.412   .     A
C349   H355    1.081   .     S
X350   C351    1.412   .     A
X350   X37     1.440   1_556 A
C351   C352    1.400   .     A
C351   H356    1.081   .     S
C352   X353    1.415   .     A
C352   F357    1.358   .     S
X353   C354    1.410   .     A
C354   F358    1.357   .     S
C359   X360    1.412   .     A
C359   C364    1.399   .     A
C359   H365    1.081   .     S
X360   C361    1.419   .     A
X360   X46     1.439   1_545 A
C361   C362    1.411   .     A
C361   H366    1.081   .     S
C362   X363    1.410   .     A
C362   F367    1.357   .     S
X363   C364    1.414   .     A
C364   F368    1.358   .     S
C369   X370    1.410   .     A
C369   C374    1.399   .     A
C369   H375    1.081   .     S
X370   C371    1.420   .     A
X370   X55     1.439   1_546 A
C371   C372    1.412   .     A
C371   H376    1.081   .     S
C372   X373    1.409   .     A
C372   F377    1.357   .     S
X373   C374    1.416   .     A
C374   F378    1.358   .     S
C379   X380    1.405   .     A
C379   C384    1.405   .     A
C379   H385    1.083   .     S
X380   C381    1.408   .     A
X380   X127    1.502   1_564 S
C381   C382    1.408   .     A
C381   H386    1.083   .     S
C382   X383    1.412   .     A
C382   F387    1.357   .     S
X383   C384    1.414   .     A
C384   F388    1.358   .     S
C389   X390    1.405   .     A
C389   C394    1.406   .     A
C389   H395    1.083   .     S
X390   C391    1.409   .     A
X390   X73     1.502   1_455 S
C391   C392    1.407   .     A
C391   H396    1.083   .     S
C392   X393    1.411   .     A
C392   F397    1.357   .     S
X393   C394    1.415   .     A
C394   F398    1.357   .     S
C399   X400    1.411   .     A
C399   C404    1.411   .     A
C399   H405    1.083   .     S
X400   C401    1.403   .     A
X400   X91     1.504   1_655 S
C401   C402    1.399   .     A
C401   H406    1.083   .     S
C402   X403    1.415   .     A
C402   F407    1.358   .     S
X403   C404    1.411   .     A
C404   F408    1.357   .     S
C409   X410    1.411   .     A
C409   C414    1.411   .     A
C409   H415    1.083   .     S
X410   C411    1.403   .     A
C411   C412    1.399   .     A
C411   H416    1.083   .     S
C412   X413    1.415   .     A
C412   F417    1.358   .     S
X413   C414    1.411   .     A
C414   F418    1.357   .     S
C419   X420    1.420   .     A
C419   C424    1.410   .     A
C419   H425    1.081   .     S
X420   C421    1.411   .     A
X420   X109    1.439   1_656 A
C421   C422    1.400   .     A
C421   H426    1.081   .     S
C422   X423    1.415   .     A
C422   F427    1.358   .     S
X423   C424    1.409   .     A
C424   F428    1.357   .     S
C429   X430    1.419   .     A
C429   C434    1.412   .     A
C429   H435    1.081   .     S
X430   C431    1.410   .     A
X430   X136    1.437   1_554 A
C431   C432    1.397   .     A
C431   H436    1.081   .     S
C432   X433    1.414   .     A
C432   F437    1.358   .     S
X433   C434    1.410   .     A
C434   F438    1.357   .     S
C439   X440    1.420   .     A
C439   C444    1.412   .     A
C439   H445    1.081   .     S
X440   C441    1.411   .     A
X440   X118    1.439   1_565 A
C441   C442    1.399   .     A
C441   H446    1.081   .     S
C442   X443    1.416   .     A
C442   F447    1.358   .     S
X443   C444    1.409   .     A
C444   F448    1.357   .     S
C449   X450    1.406   .     A
C449   C454    1.402   .     A
C449   H455    1.083   .     S
X450   C451    1.405   .     A
C451   C452    1.402   .     A
C451   H456    1.083   .     S
C452   X453    1.414   .     A
C452   F457    1.357   .     S
X453   C454    1.413   .     A
C454   F458    1.357   .     S
C459   X460    1.408   .     A
C459   C464    1.402   .     A
C459   H465    1.082   .     S
X460   C461    1.408   .     A
C461   C462    1.403   .     A
C461   H466    1.082   .     S
C462   X463    1.410   .     A
C462   F467    1.358   .     S
X463   C464    1.411   .     A
C464   F468    1.358   .     S
C469   X470    1.405   .     A
C469   C474    1.401   .     A
C469   H475    1.083   .     S
X470   C471    1.405   .     A
C471   C472    1.402   .     A
C471   H476    1.083   .     S
C472   X473    1.413   .     A
C472   F477    1.357   .     S
X473   C474    1.413   .     A
C474   F478    1.357   .     S
C479   X480    1.405   .     A
C479   C484    1.401   .     A
C479   H485    1.083   .     S
X480   C481    1.405   .     A
C481   C482    1.402   .     A
C481   H486    1.083   .     S
C482   X483    1.413   .     A
C482   F487    1.357   .     S
X483   C484    1.414   .     A
C484   F488    1.357   .     S
C489   X490    1.405   .     A
C489   C494    1.402   .     A
C489   H495    1.083   .     S
X490   C491    1.405   .     A
C491   C492    1.401   .     A
C491   H496    1.083   .     S
C492   X493    1.413   .     A
C492   F497    1.357   .     S
X493   C494    1.413   .     A
C494   F498    1.357   .     S
C499   X500    1.405   .     A
C499   C504    1.402   .     A
C499   H505    1.083   .     S
X500   C501    1.404   .     A
C501   C502    1.401   .     A
C501   H506    1.083   .     S
C502   X503    1.414   .     A
C502   F507    1.357   .     S
X503   C504    1.413   .     A
C504   F508    1.357   .     S
C509   X510    1.409   .     A
C509   C514    1.404   .     A
C509   H515    1.082   .     S
X510   C511    1.413   .     A
C511   C512    1.409   .     A
C511   H516    1.082   .     S
C512   X513    1.409   .     A
C512   F517    1.357   .     S
X513   C514    1.410   .     A
C514   F518    1.358   .     S
C519   X520    1.407   .     A
C519   C524    1.405   .     A
C519   H525    1.083   .     S
X520   C521    1.407   .     A
X520   X48     1.502   1_545 S
C521   C522    1.407   .     A
C521   H526    1.083   .     S
C522   X523    1.413   .     A
C522   F527    1.357   .     S
X523   C524    1.412   .     A
C524   F528    1.357   .     S
C529   X530    1.412   .     A
C529   C534    1.411   .     A
C529   H535    1.082   .     S
X530   C531    1.406   .     A
X530   X59     1.507   1_545 S
C531   C532    1.400   .     A
C531   H536    1.083   .     S
C532   X533    1.413   .     A
C532   F537    1.358   .     S
X533   C534    1.411   .     A
C534   F538    1.357   .     S
C539   X540    1.409   .     A
C539   C544    1.404   .     A
C539   H545    1.082   .     S
X540   C541    1.413   .     A
C541   C542    1.410   .     A
C541   H546    1.082   .     S
C542   X543    1.409   .     A
C542   F547    1.357   .     S
X543   C544    1.411   .     A
C544   F548    1.358   .     S
C549   X550    1.415   .     A
C549   C554    1.405   .     A
C549   H555    1.082   .     S
X550   C551    1.415   .     A
X550   X95     1.435   1_655 A
C551   C552    1.405   .     A
C551   H556    1.081   .     S
C552   X553    1.408   .     A
C552   F557    1.358   .     S
X553   C554    1.408   .     A
C554   F558    1.358   .     S
C559   X560    1.406   .     A
C559   C564    1.404   .     A
C559   H565    1.083   .     S
X560   C561    1.407   .     A
C561   C562    1.406   .     A
C561   H566    1.083   .     S
C562   X563    1.413   .     A
C562   F567    1.357   .     S
X563   C564    1.413   .     A
C564   F568    1.357   .     S
C569   X570    1.412   .     A
C569   C574    1.412   .     A
C569   H575    1.082   .     S
X570   C571    1.406   .     A
X570   X111    1.509   1_655 S
C571   C572    1.400   .     A
C571   H576    1.082   .     S
C572   X573    1.414   .     A
C572   F577    1.358   .     S
X573   C574    1.411   .     A
C574   F578    1.357   .     S
C579   X580    1.419   .     A
C579   C584    1.414   .     A
C579   H585    1.081   .     S
X580   C581    1.414   .     A
X580   X77     1.441   1_455 A
C581   C582    1.398   .     A
C581   H586    1.080   .     S
C582   X583    1.412   .     A
C582   F587    1.358   .     S
X583   C584    1.411   .     A
C584   F588    1.357   .     S
C589   X590    1.415   .     A
C589   C594    1.405   .     A
C589   H595    1.082   .     S
X590   C591    1.415   .     A
X590   X86     1.435   1_455 A
C591   C592    1.406   .     A
C591   H596    1.082   .     S
C592   X593    1.408   .     A
C592   F597    1.358   .     S
X593   C594    1.408   .     A
C594   F598    1.358   .     S
C599   X600    1.412   .     A
C599   C604    1.412   .     A
C599   H605    1.082   .     S
X600   C601    1.406   .     A
X600   X122    1.509   1_565 S
C601   C602    1.400   .     A
C601   H606    1.083   .     S
C602   X603    1.414   .     A
C602   F607    1.358   .     S
X603   C604    1.411   .     A
C604   F608    1.357   .     S
C609   X610    1.416   .     A
C609   C614    1.407   .     A
C609   H615    1.081   .     S
X610   C611    1.416   .     A
X610   X129    1.437   1_565 A
C611   C612    1.406   .     A
C611   H616    1.081   .     S
C612   X613    1.408   .     A
C612   F617    1.358   .     S
X613   C614    1.409   .     A
C614   F618    1.357   .     S
C619   X620    1.407   .     A
C619   C624    1.406   .     A
C619   H625    1.083   .     S
X620   C621    1.406   .     A
C621   C622    1.404   .     A
C621   H626    1.083   .     S
C622   X623    1.413   .     A
C622   F627    1.357   .     S
X623   C624    1.413   .     A
C624   F628    1.357   .     S
C629   X630    1.416   .     A
C629   C634    1.407   .     A
C629   H635    1.082   .     S
X630   C631    1.416   .     A
X630   X1      1.436   1_455 A
C631   C632    1.407   .     A
C631   H636    1.082   .     S
C632   X633    1.407   .     A
C632   F637    1.358   .     S
X633   C634    1.407   .     A
C634   F638    1.358   .     S
C639   X640    1.417   .     A
C639   C644    1.407   .     A
C639   H645    1.081   .     S
X640   C641    1.416   .     A
X640   X3      1.443   1_445 A
C641   C642    1.407   .     A
C641   H646    1.081   .     S
C642   X643    1.412   .     A
C642   F647    1.357   .     S
X643   C644    1.412   .     A
C644   F648    1.357   .     S
C649   X650    1.408   .     A
C649   C654    1.407   .     A
C649   H655    1.083   .     S
X650   C651    1.408   .     A
C651   C652    1.407   .     A
C651   H656    1.083   .     S
C652   X653    1.415   .     A
C652   F657    1.357   .     S
X653   C654    1.415   .     A
C654   F658    1.357   .     S
C659   X660    1.417   .     A
C659   C664    1.407   .     A
C659   H665    1.081   .     S
X660   C661    1.416   .     A
X660   X10     1.442   1_445 A
C661   C662    1.406   .     A
C661   H666    1.081   .     S
C662   X663    1.412   .     A
C662   F667    1.357   .     S
X663   C664    1.411   .     A
C664   F668    1.357   .     S
C669   X670    1.407   .     A
C669   C674    1.406   .     A
C669   H675    1.083   .     S
X670   C671    1.408   .     A
X670   X12     1.508   1_545 S
C671   C672    1.407   .     A
C671   H676    1.083   .     S
C672   X673    1.415   .     A
C672   F677    1.357   .     S
X673   C674    1.415   .     A
C674   F678    1.357   .     S
C679   X680    1.408   .     A
C679   C684    1.407   .     A
C679   H685    1.083   .     S
X680   C681    1.407   .     A
C681   C682    1.406   .     A
C681   H686    1.083   .     S
C682   X683    1.415   .     A
C682   F687    1.357   .     S
X683   C684    1.415   .     A
C684   F688    1.357   .     S
C689   X690    1.404   .     A
C689   C694    1.402   .     A
C689   H695    1.083   .     S
X690   C691    1.409   .     A
C691   C692    1.409   .     A
C691   H696    1.083   .     S
C692   X693    1.412   .     A
C692   F697    1.357   .     S
X693   C694    1.415   .     A
C694   F698    1.358   .     S
C699   X700    1.408   .     A
C699   C704    1.408   .     A
C699   H705    1.083   .     S
X700   C701    1.403   .     A
C701   C702    1.401   .     A
C701   H706    1.083   .     S
C702   X703    1.415   .     A
C702   F707    1.358   .     S
X703   C704    1.411   .     A
C704   F708    1.357   .     S
C709   X710    1.404   .     A
C709   C714    1.399   .     A
C709   H715    1.083   .     S
X710   C711    1.409   .     A
C711   C712    1.409   .     A
C711   H716    1.083   .     S
C712   X713    1.413   .     A
C712   F717    1.357   .     S
X713   C714    1.414   .     A
C714   F718    1.358   .     S
C719   X720    1.409   .     A
C719   C724    1.407   .     A
C719   H725    1.083   .     S
X720   C721    1.403   .     A
C721   C722    1.401   .     A
C721   H726    1.083   .     S
C722   X723    1.416   .     A
C722   F727    1.358   .     S
X723   C724    1.411   .     A
C724   F728    1.357   .     S
C729   X730    1.409   .     A
C729   C734    1.410   .     A
C729   H735    1.083   .     S
X730   C731    1.404   .     A
C731   C732    1.401   .     A
C731   H736    1.083   .     S
C732   X733    1.415   .     A
C732   F737    1.358   .     S
X733   C734    1.412   .     A
C734   F738    1.357   .     S
C739   X740    1.408   .     A
C739   C744    1.409   .     A
C739   H745    1.083   .     S
X740   C741    1.404   .     A
C741   C742    1.401   .     A
C741   H746    1.083   .     S
C742   X743    1.414   .     A
C742   F747    1.358   .     S
X743   C744    1.412   .     A
C744   F748    1.357   .     S
C749   X750    1.404   .     A
C749   C754    1.400   .     A
C749   H755    1.083   .     S
X750   C751    1.409   .     A
C751   C752    1.409   .     A
C751   H756    1.083   .     S
C752   X753    1.413   .     A
C752   F757    1.357   .     S
X753   C754    1.414   .     A
C754   F758    1.358   .     S
C759   X760    1.408   .     A
C759   C764    1.408   .     A
C759   H765    1.083   .     S
X760   C761    1.404   .     A
C761   C762    1.402   .     A
C761   H766    1.083   .     S
C762   X763    1.415   .     A
C762   F767    1.358   .     S
X763   C764    1.412   .     A
C764   F768    1.357   .     S
C769   X770    1.408   .     A
C769   C774    1.407   .     A
C769   H775    1.083   .     S
X770   C771    1.403   .     A
C771   C772    1.402   .     A
C771   H776    1.083   .     S
C772   X773    1.415   .     A
C772   F777    1.358   .     S
X773   C774    1.411   .     A
C774   F778    1.357   .     S
C779   X780    1.408   .     A
C779   C784    1.408   .     A
C779   H785    1.083   .     S
X780   C781    1.403   .     A
C781   C782    1.400   .     A
C781   H786    1.083   .     S
C782   X783    1.415   .     A
C782   F787    1.358   .     S
X783   C784    1.411   .     A
C784   F788    1.357   .     S
C789   X790    1.409   .     A
C789   C794    1.408   .     A
C789   H795    1.083   .     S
X790   C791    1.403   .     A
C791   C792    1.401   .     A
C791   H796    1.083   .     S
C792   X793    1.416   .     A
C792   F797    1.358   .     S
X793   C794    1.411   .     A
C794   F798    1.357   .     S
C799   X800    1.403   .     A
C799   C804    1.401   .     A
C799   H805    1.083   .     S
X800   C801    1.408   .     A
C801   C802    1.407   .     A
C801   H806    1.083   .     S
C802   X803    1.411   .     A
C802   F807    1.357   .     S
X803   C804    1.415   .     A
C804   F808    1.358   .     S
