data_Cu-BTC
_audit_creation_date              2016-06-22
_audit_creation_method            'Materials Studio'
_symmetry_space_group_name_H-M    'P1'
_symmetry_Int_Tables_number       1
_symmetry_cell_setting            triclinic
loop_
_symmetry_equiv_pos_as_xyz
  x,y,z
_cell_length_a                    26.3430
_cell_length_b                    26.3430
_cell_length_c                    26.3430
_cell_angle_alpha                 90.0000
_cell_angle_beta                  90.0000
_cell_angle_gamma                 90.0000
loop_
_atom_site_label
_atom_site_type_symbol
_atom_site_fract_x
_atom_site_fract_y
_atom_site_fract_z
_atom_site_U_iso_or_equiv
_atom_site_adp_type
_atom_site_occupancy
O1     O     0.31660   0.24310   0.94780   0.00000  Uiso   1.00
O2     O     0.31660   0.74310   0.44780   0.00000  Uiso   1.00
O3     O     0.81660   0.24310   0.44780   0.00000  Uiso   1.00
O4     O     0.81660   0.74310   0.94780   0.00000  Uiso   1.00
O5     O     0.68340   0.75690   0.94780   0.00000  Uiso   1.00
O6     O     0.68340   0.25690   0.44780   0.00000  Uiso   1.00
O7     O     0.18340   0.75690   0.44780   0.00000  Uiso   1.00
O8     O     0.18340   0.25690   0.94780   0.00000  Uiso   1.00
O9     O     0.68340   0.24310   0.05220   0.00000  Uiso   1.00
O10    O     0.68340   0.74310   0.55220   0.00000  Uiso   1.00
O11    O     0.18340   0.24310   0.55220   0.00000  Uiso   1.00
O12    O     0.18340   0.74310   0.05220   0.00000  Uiso   1.00
O13    O     0.31660   0.75690   0.05220   0.00000  Uiso   1.00
O14    O     0.31660   0.25690   0.55220   0.00000  Uiso   1.00
O15    O     0.81660   0.75690   0.55220   0.00000  Uiso   1.00
O16    O     0.81660   0.25690   0.05220   0.00000  Uiso   1.00
O17    O     0.94780   0.31660   0.24310   0.00000  Uiso   1.00
O18    O     0.94780   0.81660   0.74310   0.00000  Uiso   1.00
O19    O     0.44780   0.31660   0.74310   0.00000  Uiso   1.00
O20    O     0.44780   0.81660   0.24310   0.00000  Uiso   1.00
O21    O     0.94780   0.68340   0.75690   0.00000  Uiso   1.00
O22    O     0.94780   0.18340   0.25690   0.00000  Uiso   1.00
O23    O     0.44780   0.68340   0.25690   0.00000  Uiso   1.00
O24    O     0.44780   0.18340   0.75690   0.00000  Uiso   1.00
O25    O     0.05220   0.68340   0.24310   0.00000  Uiso   1.00
O26    O     0.05220   0.18340   0.74310   0.00000  Uiso   1.00
O27    O     0.55220   0.68340   0.74310   0.00000  Uiso   1.00
O28    O     0.55220   0.18340   0.24310   0.00000  Uiso   1.00
O29    O     0.05220   0.31660   0.75690   0.00000  Uiso   1.00
O30    O     0.05220   0.81660   0.25690   0.00000  Uiso   1.00
O31    O     0.55220   0.31660   0.25690   0.00000  Uiso   1.00
O32    O     0.55220   0.81660   0.75690   0.00000  Uiso   1.00
O33    O     0.24310   0.94780   0.31660   0.00000  Uiso   1.00
O34    O     0.24310   0.44780   0.81660   0.00000  Uiso   1.00
O35    O     0.74310   0.94780   0.81660   0.00000  Uiso   1.00
O36    O     0.74310   0.44780   0.31660   0.00000  Uiso   1.00
O37    O     0.75690   0.94780   0.68340   0.00000  Uiso   1.00
O38    O     0.75690   0.44780   0.18340   0.00000  Uiso   1.00
O39    O     0.25690   0.94780   0.18340   0.00000  Uiso   1.00
O40    O     0.25690   0.44780   0.68340   0.00000  Uiso   1.00
O41    O     0.24310   0.05220   0.68340   0.00000  Uiso   1.00
O42    O     0.24310   0.55220   0.18340   0.00000  Uiso   1.00
O43    O     0.74310   0.05220   0.18340   0.00000  Uiso   1.00
O44    O     0.74310   0.55220   0.68340   0.00000  Uiso   1.00
O45    O     0.75690   0.05220   0.31660   0.00000  Uiso   1.00
O46    O     0.75690   0.55220   0.81660   0.00000  Uiso   1.00
O47    O     0.25690   0.05220   0.81660   0.00000  Uiso   1.00
O48    O     0.25690   0.55220   0.31660   0.00000  Uiso   1.00
O49    O     0.24310   0.31660   0.05220   0.00000  Uiso   1.00
O50    O     0.24310   0.81660   0.55220   0.00000  Uiso   1.00
O51    O     0.74310   0.31660   0.55220   0.00000  Uiso   1.00
O52    O     0.74310   0.81660   0.05220   0.00000  Uiso   1.00
O53    O     0.75690   0.68340   0.05220   0.00000  Uiso   1.00
O54    O     0.75690   0.18340   0.55220   0.00000  Uiso   1.00
O55    O     0.25690   0.68340   0.55220   0.00000  Uiso   1.00
O56    O     0.25690   0.18340   0.05220   0.00000  Uiso   1.00
O57    O     0.24310   0.68340   0.94780   0.00000  Uiso   1.00
O58    O     0.24310   0.18340   0.44780   0.00000  Uiso   1.00
O59    O     0.74310   0.68340   0.44780   0.00000  Uiso   1.00
O60    O     0.74310   0.18340   0.94780   0.00000  Uiso   1.00
O61    O     0.75690   0.31660   0.94780   0.00000  Uiso   1.00
O62    O     0.75690   0.81660   0.44780   0.00000  Uiso   1.00
O63    O     0.25690   0.31660   0.44780   0.00000  Uiso   1.00
O64    O     0.25690   0.81660   0.94780   0.00000  Uiso   1.00
O65    O     0.31660   0.94780   0.75690   0.00000  Uiso   1.00
O66    O     0.31660   0.44780   0.25690   0.00000  Uiso   1.00
O67    O     0.81660   0.94780   0.25690   0.00000  Uiso   1.00
O68    O     0.81660   0.44780   0.75690   0.00000  Uiso   1.00
O69    O     0.68340   0.94780   0.24310   0.00000  Uiso   1.00
O70    O     0.68340   0.44780   0.74310   0.00000  Uiso   1.00
O71    O     0.18340   0.94780   0.74310   0.00000  Uiso   1.00
O72    O     0.18340   0.44780   0.24310   0.00000  Uiso   1.00
O73    O     0.68340   0.05220   0.75690   0.00000  Uiso   1.00
O74    O     0.68340   0.55220   0.25690   0.00000  Uiso   1.00
O75    O     0.18340   0.05220   0.25690   0.00000  Uiso   1.00
O76    O     0.18340   0.55220   0.75690   0.00000  Uiso   1.00
O77    O     0.31660   0.05220   0.24310   0.00000  Uiso   1.00
O78    O     0.31660   0.55220   0.74310   0.00000  Uiso   1.00
O79    O     0.81660   0.05220   0.74310   0.00000  Uiso   1.00
O80    O     0.81660   0.55220   0.24310   0.00000  Uiso   1.00
O81    O     0.94780   0.24310   0.68340   0.00000  Uiso   1.00
O82    O     0.94780   0.74310   0.18340   0.00000  Uiso   1.00
O83    O     0.44780   0.24310   0.18340   0.00000  Uiso   1.00
O84    O     0.44780   0.74310   0.68340   0.00000  Uiso   1.00
O85    O     0.94780   0.75690   0.31660   0.00000  Uiso   1.00
O86    O     0.94780   0.25690   0.81660   0.00000  Uiso   1.00
O87    O     0.44780   0.75690   0.81660   0.00000  Uiso   1.00
O88    O     0.44780   0.25690   0.31660   0.00000  Uiso   1.00
O89    O     0.05220   0.24310   0.31660   0.00000  Uiso   1.00
O90    O     0.05220   0.74310   0.81660   0.00000  Uiso   1.00
O91    O     0.55220   0.24310   0.81660   0.00000  Uiso   1.00
O92    O     0.55220   0.74310   0.31660   0.00000  Uiso   1.00
O93    O     0.05220   0.75690   0.68340   0.00000  Uiso   1.00
O94    O     0.05220   0.25690   0.18340   0.00000  Uiso   1.00
O95    O     0.55220   0.75690   0.18340   0.00000  Uiso   1.00
O96    O     0.55220   0.25690   0.68340   0.00000  Uiso   1.00
O97    O     0.68340   0.75690   0.05220   0.00000  Uiso   1.00
O98    O     0.68340   0.25690   0.55220   0.00000  Uiso   1.00
O99    O     0.18340   0.75690   0.55220   0.00000  Uiso   1.00
O100   O     0.18340   0.25690   0.05220   0.00000  Uiso   1.00
O101   O     0.31660   0.24310   0.05220   0.00000  Uiso   1.00
O102   O     0.31660   0.74310   0.55220   0.00000  Uiso   1.00
O103   O     0.81660   0.24310   0.55220   0.00000  Uiso   1.00
O104   O     0.81660   0.74310   0.05220   0.00000  Uiso   1.00
O105   O     0.31660   0.75690   0.94780   0.00000  Uiso   1.00
O106   O     0.31660   0.25690   0.44780   0.00000  Uiso   1.00
O107   O     0.81660   0.75690   0.44780   0.00000  Uiso   1.00
O108   O     0.81660   0.25690   0.94780   0.00000  Uiso   1.00
O109   O     0.68340   0.24310   0.94780   0.00000  Uiso   1.00
O110   O     0.68340   0.74310   0.44780   0.00000  Uiso   1.00
O111   O     0.18340   0.24310   0.44780   0.00000  Uiso   1.00
O112   O     0.18340   0.74310   0.94780   0.00000  Uiso   1.00
O113   O     0.05220   0.68340   0.75690   0.00000  Uiso   1.00
O114   O     0.05220   0.18340   0.25690   0.00000  Uiso   1.00
O115   O     0.55220   0.68340   0.25690   0.00000  Uiso   1.00
O116   O     0.55220   0.18340   0.75690   0.00000  Uiso   1.00
O117   O     0.05220   0.31660   0.24310   0.00000  Uiso   1.00
O118   O     0.05220   0.81660   0.74310   0.00000  Uiso   1.00
O119   O     0.55220   0.31660   0.74310   0.00000  Uiso   1.00
O120   O     0.55220   0.81660   0.24310   0.00000  Uiso   1.00
O121   O     0.94780   0.31660   0.75690   0.00000  Uiso   1.00
O122   O     0.94780   0.81660   0.25690   0.00000  Uiso   1.00
O123   O     0.44780   0.31660   0.25690   0.00000  Uiso   1.00
O124   O     0.44780   0.81660   0.75690   0.00000  Uiso   1.00
O125   O     0.94780   0.68340   0.24310   0.00000  Uiso   1.00
O126   O     0.94780   0.18340   0.74310   0.00000  Uiso   1.00
O127   O     0.44780   0.68340   0.74310   0.00000  Uiso   1.00
O128   O     0.44780   0.18340   0.24310   0.00000  Uiso   1.00
O129   O     0.75690   0.05220   0.68340   0.00000  Uiso   1.00
O130   O     0.75690   0.55220   0.18340   0.00000  Uiso   1.00
O131   O     0.25690   0.05220   0.18340   0.00000  Uiso   1.00
O132   O     0.25690   0.55220   0.68340   0.00000  Uiso   1.00
O133   O     0.24310   0.05220   0.31660   0.00000  Uiso   1.00
O134   O     0.24310   0.55220   0.81660   0.00000  Uiso   1.00
O135   O     0.74310   0.05220   0.81660   0.00000  Uiso   1.00
O136   O     0.74310   0.55220   0.31660   0.00000  Uiso   1.00
O137   O     0.75690   0.94780   0.31660   0.00000  Uiso   1.00
O138   O     0.75690   0.44780   0.81660   0.00000  Uiso   1.00
O139   O     0.25690   0.94780   0.81660   0.00000  Uiso   1.00
O140   O     0.25690   0.44780   0.31660   0.00000  Uiso   1.00
O141   O     0.24310   0.94780   0.68340   0.00000  Uiso   1.00
O142   O     0.24310   0.44780   0.18340   0.00000  Uiso   1.00
O143   O     0.74310   0.94780   0.18340   0.00000  Uiso   1.00
O144   O     0.74310   0.44780   0.68340   0.00000  Uiso   1.00
O145   O     0.75690   0.68340   0.94780   0.00000  Uiso   1.00
O146   O     0.75690   0.18340   0.44780   0.00000  Uiso   1.00
O147   O     0.25690   0.68340   0.44780   0.00000  Uiso   1.00
O148   O     0.25690   0.18340   0.94780   0.00000  Uiso   1.00
O149   O     0.24310   0.31660   0.94780   0.00000  Uiso   1.00
O150   O     0.24310   0.81660   0.44780   0.00000  Uiso   1.00
O151   O     0.74310   0.31660   0.44780   0.00000  Uiso   1.00
O152   O     0.74310   0.81660   0.94780   0.00000  Uiso   1.00
O153   O     0.75690   0.31660   0.05220   0.00000  Uiso   1.00
O154   O     0.75690   0.81660   0.55220   0.00000  Uiso   1.00
O155   O     0.25690   0.31660   0.55220   0.00000  Uiso   1.00
O156   O     0.25690   0.81660   0.05220   0.00000  Uiso   1.00
O157   O     0.24310   0.68340   0.05220   0.00000  Uiso   1.00
O158   O     0.24310   0.18340   0.55220   0.00000  Uiso   1.00
O159   O     0.74310   0.68340   0.55220   0.00000  Uiso   1.00
O160   O     0.74310   0.18340   0.05220   0.00000  Uiso   1.00
O161   O     0.68340   0.05220   0.24310   0.00000  Uiso   1.00
O162   O     0.68340   0.55220   0.74310   0.00000  Uiso   1.00
O163   O     0.18340   0.05220   0.74310   0.00000  Uiso   1.00
O164   O     0.18340   0.55220   0.24310   0.00000  Uiso   1.00
O165   O     0.31660   0.05220   0.75690   0.00000  Uiso   1.00
O166   O     0.31660   0.55220   0.25690   0.00000  Uiso   1.00
O167   O     0.81660   0.05220   0.25690   0.00000  Uiso   1.00
O168   O     0.81660   0.55220   0.75690   0.00000  Uiso   1.00
O169   O     0.31660   0.94780   0.24310   0.00000  Uiso   1.00
O170   O     0.31660   0.44780   0.74310   0.00000  Uiso   1.00
O171   O     0.81660   0.94780   0.74310   0.00000  Uiso   1.00
O172   O     0.81660   0.44780   0.24310   0.00000  Uiso   1.00
O173   O     0.68340   0.94780   0.75690   0.00000  Uiso   1.00
O174   O     0.68340   0.44780   0.25690   0.00000  Uiso   1.00
O175   O     0.18340   0.94780   0.25690   0.00000  Uiso   1.00
O176   O     0.18340   0.44780   0.75690   0.00000  Uiso   1.00
O177   O     0.05220   0.75690   0.31660   0.00000  Uiso   1.00
O178   O     0.05220   0.25690   0.81660   0.00000  Uiso   1.00
O179   O     0.55220   0.75690   0.81660   0.00000  Uiso   1.00
O180   O     0.55220   0.25690   0.31660   0.00000  Uiso   1.00
O181   O     0.05220   0.24310   0.68340   0.00000  Uiso   1.00
O182   O     0.05220   0.74310   0.18340   0.00000  Uiso   1.00
O183   O     0.55220   0.24310   0.18340   0.00000  Uiso   1.00
O184   O     0.55220   0.74310   0.68340   0.00000  Uiso   1.00
O185   O     0.94780   0.75690   0.68340   0.00000  Uiso   1.00
O186   O     0.94780   0.25690   0.18340   0.00000  Uiso   1.00
O187   O     0.44780   0.75690   0.18340   0.00000  Uiso   1.00
O188   O     0.44780   0.25690   0.68340   0.00000  Uiso   1.00
O189   O     0.94780   0.24310   0.31660   0.00000  Uiso   1.00
O190   O     0.94780   0.74310   0.81660   0.00000  Uiso   1.00
O191   O     0.44780   0.24310   0.81660   0.00000  Uiso   1.00
O192   O     0.44780   0.74310   0.31660   0.00000  Uiso   1.00
Cu193  Cu    0.28530   0.28530   0.00000   0.00000  Uiso   1.00
Cu194  Cu    0.28530   0.78530   0.50000   0.00000  Uiso   1.00
Cu195  Cu    0.78530   0.28530   0.50000   0.00000  Uiso   1.00
Cu196  Cu    0.78530   0.78530   0.00000   0.00000  Uiso   1.00
Cu197  Cu    0.71470   0.71470   0.00000   0.00000  Uiso   1.00
Cu198  Cu    0.71470   0.21470   0.50000   0.00000  Uiso   1.00
Cu199  Cu    0.21470   0.71470   0.50000   0.00000  Uiso   1.00
Cu200  Cu    0.21470   0.21470   0.00000   0.00000  Uiso   1.00
Cu201  Cu    0.71470   0.28530   0.00000   0.00000  Uiso   1.00
Cu202  Cu    0.71470   0.78530   0.50000   0.00000  Uiso   1.00
Cu203  Cu    0.21470   0.28530   0.50000   0.00000  Uiso   1.00
Cu204  Cu    0.21470   0.78530   0.00000   0.00000  Uiso   1.00
Cu205  Cu    0.28530   0.71470   0.00000   0.00000  Uiso   1.00
Cu206  Cu    0.28530   0.21470   0.50000   0.00000  Uiso   1.00
Cu207  Cu    0.78530   0.71470   0.50000   0.00000  Uiso   1.00
Cu208  Cu    0.78530   0.21470   0.00000   0.00000  Uiso   1.00
Cu209  Cu    0.00000   0.28530   0.28530   0.00000  Uiso   1.00
Cu210  Cu    0.00000   0.78530   0.78530   0.00000  Uiso   1.00
Cu211  Cu    0.50000   0.28530   0.78530   0.00000  Uiso   1.00
Cu212  Cu    0.50000   0.78530   0.28530   0.00000  Uiso   1.00
Cu213  Cu    0.00000   0.71470   0.71470   0.00000  Uiso   1.00
Cu214  Cu    0.00000   0.21470   0.21470   0.00000  Uiso   1.00
Cu215  Cu    0.50000   0.71470   0.21470   0.00000  Uiso   1.00
Cu216  Cu    0.50000   0.21470   0.71470   0.00000  Uiso   1.00
Cu217  Cu    0.00000   0.71470   0.28530   0.00000  Uiso   1.00
Cu218  Cu    0.00000   0.21470   0.78530   0.00000  Uiso   1.00
Cu219  Cu    0.50000   0.71470   0.78530   0.00000  Uiso   1.00
Cu220  Cu    0.50000   0.21470   0.28530   0.00000  Uiso   1.00
Cu221  Cu    0.00000   0.28530   0.71470   0.00000  Uiso   1.00
Cu222  Cu    0.00000   0.78530   0.21470   0.00000  Uiso   1.00
Cu223  Cu    0.50000   0.28530   0.21470   0.00000  Uiso   1.00
Cu224  Cu    0.50000   0.78530   0.71470   0.00000  Uiso   1.00
Cu225  Cu    0.28530   0.00000   0.28530   0.00000  Uiso   1.00
Cu226  Cu    0.28530   0.50000   0.78530   0.00000  Uiso   1.00
Cu227  Cu    0.78530   0.00000   0.78530   0.00000  Uiso   1.00
Cu228  Cu    0.78530   0.50000   0.28530   0.00000  Uiso   1.00
Cu229  Cu    0.71470   0.00000   0.71470   0.00000  Uiso   1.00
Cu230  Cu    0.71470   0.50000   0.21470   0.00000  Uiso   1.00
Cu231  Cu    0.21470   0.00000   0.21470   0.00000  Uiso   1.00
Cu232  Cu    0.21470   0.50000   0.71470   0.00000  Uiso   1.00
Cu233  Cu    0.28530   0.00000   0.71470   0.00000  Uiso   1.00
Cu234  Cu    0.28530   0.50000   0.21470   0.00000  Uiso   1.00
Cu235  Cu    0.78530   0.00000   0.21470   0.00000  Uiso   1.00
Cu236  Cu    0.78530   0.50000   0.71470   0.00000  Uiso   1.00
Cu237  Cu    0.71470   0.00000   0.28530   0.00000  Uiso   1.00
Cu238  Cu    0.71470   0.50000   0.78530   0.00000  Uiso   1.00
Cu239  Cu    0.21470   0.00000   0.78530   0.00000  Uiso   1.00
Cu240  Cu    0.21470   0.50000   0.28530   0.00000  Uiso   1.00
C241   C     0.29680   0.20320   0.93130   0.00000  Uiso   1.00
C242   C     0.32200   0.17800   0.88700   0.00000  Uiso   1.00
C243   C     0.29680   0.70320   0.43130   0.00000  Uiso   1.00
C244   C     0.32200   0.67800   0.38700   0.00000  Uiso   1.00
C245   C     0.70320   0.79680   0.93130   0.00000  Uiso   1.00
C246   C     0.67800   0.82200   0.88700   0.00000  Uiso   1.00
C247   C     0.70320   0.29680   0.43130   0.00000  Uiso   1.00
C248   C     0.67800   0.32200   0.38700   0.00000  Uiso   1.00
C249   C     0.20320   0.29680   0.93130   0.00000  Uiso   1.00
C250   C     0.17800   0.32200   0.88700   0.00000  Uiso   1.00
C251   C     0.70320   0.20320   0.06870   0.00000  Uiso   1.00
C252   C     0.67800   0.17800   0.11300   0.00000  Uiso   1.00
C253   C     0.70320   0.70320   0.56870   0.00000  Uiso   1.00
C254   C     0.67800   0.67800   0.61300   0.00000  Uiso   1.00
C255   C     0.20320   0.20320   0.56870   0.00000  Uiso   1.00
C256   C     0.17800   0.17800   0.61300   0.00000  Uiso   1.00
C257   C     0.29680   0.79680   0.06870   0.00000  Uiso   1.00
C258   C     0.32200   0.82200   0.11300   0.00000  Uiso   1.00
C259   C     0.29680   0.29680   0.56870   0.00000  Uiso   1.00
C260   C     0.32200   0.32200   0.61300   0.00000  Uiso   1.00
C261   C     0.93130   0.29680   0.20320   0.00000  Uiso   1.00
C262   C     0.88700   0.32200   0.17800   0.00000  Uiso   1.00
C263   C     0.43130   0.29680   0.70320   0.00000  Uiso   1.00
C264   C     0.38700   0.32200   0.67800   0.00000  Uiso   1.00
C265   C     0.93130   0.70320   0.79680   0.00000  Uiso   1.00
C266   C     0.88700   0.67800   0.82200   0.00000  Uiso   1.00
C267   C     0.93130   0.20320   0.29680   0.00000  Uiso   1.00
C268   C     0.88700   0.17800   0.32200   0.00000  Uiso   1.00
C269   C     0.43130   0.70320   0.29680   0.00000  Uiso   1.00
C270   C     0.38700   0.67800   0.32200   0.00000  Uiso   1.00
C271   C     0.06870   0.70320   0.20320   0.00000  Uiso   1.00
C272   C     0.11300   0.67800   0.17800   0.00000  Uiso   1.00
C273   C     0.56870   0.70320   0.70320   0.00000  Uiso   1.00
C274   C     0.61300   0.67800   0.67800   0.00000  Uiso   1.00
C275   C     0.56870   0.20320   0.20320   0.00000  Uiso   1.00
C276   C     0.61300   0.17800   0.17800   0.00000  Uiso   1.00
C277   C     0.06870   0.29680   0.79680   0.00000  Uiso   1.00
C278   C     0.11300   0.32200   0.82200   0.00000  Uiso   1.00
C279   C     0.56870   0.29680   0.29680   0.00000  Uiso   1.00
C280   C     0.61300   0.32200   0.32200   0.00000  Uiso   1.00
C281   C     0.20320   0.93130   0.29680   0.00000  Uiso   1.00
C282   C     0.17800   0.88700   0.32200   0.00000  Uiso   1.00
C283   C     0.20320   0.43130   0.79680   0.00000  Uiso   1.00
C284   C     0.17800   0.38700   0.82200   0.00000  Uiso   1.00
C285   C     0.79680   0.93130   0.70320   0.00000  Uiso   1.00
C286   C     0.82200   0.88700   0.67800   0.00000  Uiso   1.00
C287   C     0.79680   0.43130   0.20320   0.00000  Uiso   1.00
C288   C     0.82200   0.38700   0.17800   0.00000  Uiso   1.00
C289   C     0.29680   0.93130   0.20320   0.00000  Uiso   1.00
C290   C     0.32200   0.88700   0.17800   0.00000  Uiso   1.00
C291   C     0.20320   0.06870   0.70320   0.00000  Uiso   1.00
C292   C     0.17800   0.11300   0.67800   0.00000  Uiso   1.00
C293   C     0.20320   0.56870   0.20320   0.00000  Uiso   1.00
C294   C     0.17800   0.61300   0.17800   0.00000  Uiso   1.00
C295   C     0.79680   0.06870   0.29680   0.00000  Uiso   1.00
C296   C     0.82200   0.11300   0.32200   0.00000  Uiso   1.00
C297   C     0.79680   0.56870   0.79680   0.00000  Uiso   1.00
C298   C     0.82200   0.61300   0.82200   0.00000  Uiso   1.00
C299   C     0.29680   0.56870   0.29680   0.00000  Uiso   1.00
C300   C     0.32200   0.61300   0.32200   0.00000  Uiso   1.00
C301   C     0.20320   0.29680   0.06870   0.00000  Uiso   1.00
C302   C     0.17800   0.32200   0.11300   0.00000  Uiso   1.00
C303   C     0.20320   0.79680   0.56870   0.00000  Uiso   1.00
C304   C     0.17800   0.82200   0.61300   0.00000  Uiso   1.00
C305   C     0.79680   0.70320   0.06870   0.00000  Uiso   1.00
C306   C     0.82200   0.67800   0.11300   0.00000  Uiso   1.00
C307   C     0.79680   0.20320   0.56870   0.00000  Uiso   1.00
C308   C     0.82200   0.17800   0.61300   0.00000  Uiso   1.00
C309   C     0.29680   0.20320   0.06870   0.00000  Uiso   1.00
C310   C     0.32200   0.17800   0.11300   0.00000  Uiso   1.00
C311   C     0.20320   0.70320   0.93130   0.00000  Uiso   1.00
C312   C     0.17800   0.67800   0.88700   0.00000  Uiso   1.00
C313   C     0.20320   0.20320   0.43130   0.00000  Uiso   1.00
C314   C     0.17800   0.17800   0.38700   0.00000  Uiso   1.00
C315   C     0.79680   0.29680   0.93130   0.00000  Uiso   1.00
C316   C     0.82200   0.32200   0.88700   0.00000  Uiso   1.00
C317   C     0.79680   0.79680   0.43130   0.00000  Uiso   1.00
C318   C     0.82200   0.82200   0.38700   0.00000  Uiso   1.00
C319   C     0.29680   0.29680   0.43130   0.00000  Uiso   1.00
C320   C     0.32200   0.32200   0.38700   0.00000  Uiso   1.00
C321   C     0.29680   0.93130   0.79680   0.00000  Uiso   1.00
C322   C     0.32200   0.88700   0.82200   0.00000  Uiso   1.00
C323   C     0.29680   0.43130   0.29680   0.00000  Uiso   1.00
C324   C     0.32200   0.38700   0.32200   0.00000  Uiso   1.00
C325   C     0.70320   0.93130   0.20320   0.00000  Uiso   1.00
C326   C     0.67800   0.88700   0.17800   0.00000  Uiso   1.00
C327   C     0.70320   0.43130   0.70320   0.00000  Uiso   1.00
C328   C     0.67800   0.38700   0.67800   0.00000  Uiso   1.00
C329   C     0.20320   0.43130   0.20320   0.00000  Uiso   1.00
C330   C     0.17800   0.38700   0.17800   0.00000  Uiso   1.00
C331   C     0.70320   0.06870   0.79680   0.00000  Uiso   1.00
C332   C     0.67800   0.11300   0.82200   0.00000  Uiso   1.00
C333   C     0.70320   0.56870   0.29680   0.00000  Uiso   1.00
C334   C     0.67800   0.61300   0.32200   0.00000  Uiso   1.00
C335   C     0.20320   0.06870   0.29680   0.00000  Uiso   1.00
C336   C     0.17800   0.11300   0.32200   0.00000  Uiso   1.00
C337   C     0.29680   0.06870   0.20320   0.00000  Uiso   1.00
C338   C     0.32200   0.11300   0.17800   0.00000  Uiso   1.00
C339   C     0.29680   0.56870   0.70320   0.00000  Uiso   1.00
C340   C     0.32200   0.61300   0.67800   0.00000  Uiso   1.00
C341   C     0.93130   0.20320   0.70320   0.00000  Uiso   1.00
C342   C     0.88700   0.17800   0.67800   0.00000  Uiso   1.00
C343   C     0.43130   0.20320   0.20320   0.00000  Uiso   1.00
C344   C     0.38700   0.17800   0.17800   0.00000  Uiso   1.00
C345   C     0.93130   0.79680   0.29680   0.00000  Uiso   1.00
C346   C     0.88700   0.82200   0.32200   0.00000  Uiso   1.00
C347   C     0.43130   0.79680   0.79680   0.00000  Uiso   1.00
C348   C     0.38700   0.82200   0.82200   0.00000  Uiso   1.00
C349   C     0.43130   0.29680   0.29680   0.00000  Uiso   1.00
C350   C     0.38700   0.32200   0.32200   0.00000  Uiso   1.00
C351   C     0.06870   0.20320   0.29680   0.00000  Uiso   1.00
C352   C     0.11300   0.17800   0.32200   0.00000  Uiso   1.00
C353   C     0.56870   0.20320   0.79680   0.00000  Uiso   1.00
C354   C     0.61300   0.17800   0.82200   0.00000  Uiso   1.00
C355   C     0.06870   0.79680   0.70320   0.00000  Uiso   1.00
C356   C     0.11300   0.82200   0.67800   0.00000  Uiso   1.00
C357   C     0.06870   0.29680   0.20320   0.00000  Uiso   1.00
C358   C     0.11300   0.32200   0.17800   0.00000  Uiso   1.00
C359   C     0.56870   0.79680   0.20320   0.00000  Uiso   1.00
C360   C     0.61300   0.82200   0.17800   0.00000  Uiso   1.00
C361   C     0.70320   0.79680   0.06870   0.00000  Uiso   1.00
C362   C     0.67800   0.82200   0.11300   0.00000  Uiso   1.00
C363   C     0.70320   0.29680   0.56870   0.00000  Uiso   1.00
C364   C     0.67800   0.32200   0.61300   0.00000  Uiso   1.00
C365   C     0.29680   0.70320   0.56870   0.00000  Uiso   1.00
C366   C     0.32200   0.67800   0.61300   0.00000  Uiso   1.00
C367   C     0.29680   0.79680   0.93130   0.00000  Uiso   1.00
C368   C     0.32200   0.82200   0.88700   0.00000  Uiso   1.00
C369   C     0.70320   0.20320   0.93130   0.00000  Uiso   1.00
C370   C     0.67800   0.17800   0.88700   0.00000  Uiso   1.00
C371   C     0.70320   0.70320   0.43130   0.00000  Uiso   1.00
C372   C     0.67800   0.67800   0.38700   0.00000  Uiso   1.00
C373   C     0.06870   0.70320   0.79680   0.00000  Uiso   1.00
C374   C     0.11300   0.67800   0.82200   0.00000  Uiso   1.00
C375   C     0.56870   0.70320   0.29680   0.00000  Uiso   1.00
C376   C     0.61300   0.67800   0.32200   0.00000  Uiso   1.00
C377   C     0.56870   0.29680   0.70320   0.00000  Uiso   1.00
C378   C     0.61300   0.32200   0.67800   0.00000  Uiso   1.00
C379   C     0.93130   0.29680   0.79680   0.00000  Uiso   1.00
C380   C     0.88700   0.32200   0.82200   0.00000  Uiso   1.00
C381   C     0.93130   0.70320   0.20320   0.00000  Uiso   1.00
C382   C     0.88700   0.67800   0.17800   0.00000  Uiso   1.00
C383   C     0.43130   0.70320   0.70320   0.00000  Uiso   1.00
C384   C     0.38700   0.67800   0.67800   0.00000  Uiso   1.00
C385   C     0.79680   0.06870   0.70320   0.00000  Uiso   1.00
C386   C     0.82200   0.11300   0.67800   0.00000  Uiso   1.00
C387   C     0.79680   0.56870   0.20320   0.00000  Uiso   1.00
C388   C     0.82200   0.61300   0.17800   0.00000  Uiso   1.00
C389   C     0.20320   0.56870   0.79680   0.00000  Uiso   1.00
C390   C     0.17800   0.61300   0.82200   0.00000  Uiso   1.00
C391   C     0.79680   0.93130   0.29680   0.00000  Uiso   1.00
C392   C     0.82200   0.88700   0.32200   0.00000  Uiso   1.00
C393   C     0.79680   0.43130   0.79680   0.00000  Uiso   1.00
C394   C     0.82200   0.38700   0.82200   0.00000  Uiso   1.00
C395   C     0.20320   0.93130   0.70320   0.00000  Uiso   1.00
C396   C     0.17800   0.88700   0.67800   0.00000  Uiso   1.00
C397   C     0.79680   0.70320   0.93130   0.00000  Uiso   1.00
C398   C     0.82200   0.67800   0.88700   0.00000  Uiso   1.00
C399   C     0.79680   0.20320   0.43130   0.00000  Uiso   1.00
C400   C     0.82200   0.17800   0.38700   0.00000  Uiso   1.00
C401   C     0.20320   0.79680   0.43130   0.00000  Uiso   1.00
C402   C     0.17800   0.82200   0.38700   0.00000  Uiso   1.00
C403   C     0.79680   0.29680   0.06870   0.00000  Uiso   1.00
C404   C     0.82200   0.32200   0.11300   0.00000  Uiso   1.00
C405   C     0.79680   0.79680   0.56870   0.00000  Uiso   1.00
C406   C     0.82200   0.82200   0.61300   0.00000  Uiso   1.00
C407   C     0.20320   0.70320   0.06870   0.00000  Uiso   1.00
C408   C     0.17800   0.67800   0.11300   0.00000  Uiso   1.00
C409   C     0.70320   0.06870   0.20320   0.00000  Uiso   1.00
C410   C     0.67800   0.11300   0.17800   0.00000  Uiso   1.00
C411   C     0.70320   0.56870   0.70320   0.00000  Uiso   1.00
C412   C     0.67800   0.61300   0.67800   0.00000  Uiso   1.00
C413   C     0.29680   0.06870   0.79680   0.00000  Uiso   1.00
C414   C     0.32200   0.11300   0.82200   0.00000  Uiso   1.00
C415   C     0.29680   0.43130   0.70320   0.00000  Uiso   1.00
C416   C     0.32200   0.38700   0.67800   0.00000  Uiso   1.00
C417   C     0.70320   0.93130   0.79680   0.00000  Uiso   1.00
C418   C     0.67800   0.88700   0.82200   0.00000  Uiso   1.00
C419   C     0.70320   0.43130   0.29680   0.00000  Uiso   1.00
C420   C     0.67800   0.38700   0.32200   0.00000  Uiso   1.00
C421   C     0.06870   0.79680   0.29680   0.00000  Uiso   1.00
C422   C     0.11300   0.82200   0.32200   0.00000  Uiso   1.00
C423   C     0.56870   0.79680   0.79680   0.00000  Uiso   1.00
C424   C     0.61300   0.82200   0.82200   0.00000  Uiso   1.00
C425   C     0.06870   0.20320   0.70320   0.00000  Uiso   1.00
C426   C     0.11300   0.17800   0.67800   0.00000  Uiso   1.00
C427   C     0.93130   0.79680   0.70320   0.00000  Uiso   1.00
C428   C     0.88700   0.82200   0.67800   0.00000  Uiso   1.00
C429   C     0.43130   0.79680   0.20320   0.00000  Uiso   1.00
C430   C     0.38700   0.82200   0.17800   0.00000  Uiso   1.00
C431   C     0.43130   0.20320   0.79680   0.00000  Uiso   1.00
C432   C     0.38700   0.17800   0.82200   0.00000  Uiso   1.00
C433   C     0.36550   0.19940   0.86550   0.00000  Uiso   1.00
H434   H     0.38020   0.22800   0.88020   0.00000  Uiso   1.00
C435   C     0.36550   0.69940   0.36550   0.00000  Uiso   1.00
H436   H     0.38020   0.72800   0.38020   0.00000  Uiso   1.00
C437   C     0.86550   0.69940   0.86550   0.00000  Uiso   1.00
H438   H     0.88020   0.72800   0.88020   0.00000  Uiso   1.00
C439   C     0.63450   0.80060   0.86550   0.00000  Uiso   1.00
H440   H     0.61980   0.77200   0.88020   0.00000  Uiso   1.00
C441   C     0.63450   0.30060   0.36550   0.00000  Uiso   1.00
H442   H     0.61980   0.27200   0.38020   0.00000  Uiso   1.00
C443   C     0.63450   0.19940   0.13450   0.00000  Uiso   1.00
H444   H     0.61980   0.22800   0.11980   0.00000  Uiso   1.00
C445   C     0.63450   0.69940   0.63450   0.00000  Uiso   1.00
H446   H     0.61980   0.72800   0.61980   0.00000  Uiso   1.00
C447   C     0.36550   0.80060   0.13450   0.00000  Uiso   1.00
H448   H     0.38020   0.77200   0.11980   0.00000  Uiso   1.00
C449   C     0.36550   0.30060   0.63450   0.00000  Uiso   1.00
H450   H     0.38020   0.27200   0.61980   0.00000  Uiso   1.00
C451   C     0.86550   0.80060   0.63450   0.00000  Uiso   1.00
H452   H     0.88020   0.77200   0.61980   0.00000  Uiso   1.00
C453   C     0.86550   0.36550   0.19940   0.00000  Uiso   1.00
H454   H     0.88020   0.38020   0.22800   0.00000  Uiso   1.00
C455   C     0.86550   0.86550   0.69940   0.00000  Uiso   1.00
H456   H     0.88020   0.88020   0.72800   0.00000  Uiso   1.00
C457   C     0.86550   0.63450   0.80060   0.00000  Uiso   1.00
H458   H     0.88020   0.61980   0.77200   0.00000  Uiso   1.00
C459   C     0.86550   0.13450   0.30060   0.00000  Uiso   1.00
H460   H     0.88020   0.11980   0.27200   0.00000  Uiso   1.00
C461   C     0.13450   0.63450   0.19940   0.00000  Uiso   1.00
H462   H     0.11980   0.61980   0.22800   0.00000  Uiso   1.00
C463   C     0.13450   0.13450   0.69940   0.00000  Uiso   1.00
H464   H     0.11980   0.11980   0.72800   0.00000  Uiso   1.00
C465   C     0.63450   0.63450   0.69940   0.00000  Uiso   1.00
H466   H     0.61980   0.61980   0.72800   0.00000  Uiso   1.00
C467   C     0.13450   0.36550   0.80060   0.00000  Uiso   1.00
H468   H     0.11980   0.38020   0.77200   0.00000  Uiso   1.00
C469   C     0.13450   0.86550   0.30060   0.00000  Uiso   1.00
H470   H     0.11980   0.88020   0.27200   0.00000  Uiso   1.00
C471   C     0.63450   0.86550   0.80060   0.00000  Uiso   1.00
H472   H     0.61980   0.88020   0.77200   0.00000  Uiso   1.00
C473   C     0.19940   0.86550   0.36550   0.00000  Uiso   1.00
H474   H     0.22800   0.88020   0.38020   0.00000  Uiso   1.00
C475   C     0.69940   0.86550   0.86550   0.00000  Uiso   1.00
H476   H     0.72800   0.88020   0.88020   0.00000  Uiso   1.00
C477   C     0.80060   0.86550   0.63450   0.00000  Uiso   1.00
H478   H     0.77200   0.88020   0.61980   0.00000  Uiso   1.00
C479   C     0.30060   0.86550   0.13450   0.00000  Uiso   1.00
H480   H     0.27200   0.88020   0.11980   0.00000  Uiso   1.00
C481   C     0.19940   0.13450   0.63450   0.00000  Uiso   1.00
H482   H     0.22800   0.11980   0.61980   0.00000  Uiso   1.00
C483   C     0.69940   0.13450   0.13450   0.00000  Uiso   1.00
H484   H     0.72800   0.11980   0.11980   0.00000  Uiso   1.00
C485   C     0.69940   0.63450   0.63450   0.00000  Uiso   1.00
H486   H     0.72800   0.61980   0.61980   0.00000  Uiso   1.00
C487   C     0.80060   0.13450   0.36550   0.00000  Uiso   1.00
H488   H     0.77200   0.11980   0.38020   0.00000  Uiso   1.00
C489   C     0.80060   0.63450   0.86550   0.00000  Uiso   1.00
H490   H     0.77200   0.61980   0.88020   0.00000  Uiso   1.00
C491   C     0.30060   0.13450   0.86550   0.00000  Uiso   1.00
H492   H     0.27200   0.11980   0.88020   0.00000  Uiso   1.00
C493   C     0.19940   0.36550   0.13450   0.00000  Uiso   1.00
H494   H     0.22800   0.38020   0.11980   0.00000  Uiso   1.00
C495   C     0.19940   0.86550   0.63450   0.00000  Uiso   1.00
H496   H     0.22800   0.88020   0.61980   0.00000  Uiso   1.00
C497   C     0.69940   0.36550   0.63450   0.00000  Uiso   1.00
H498   H     0.72800   0.38020   0.61980   0.00000  Uiso   1.00
C499   C     0.80060   0.63450   0.13450   0.00000  Uiso   1.00
H500   H     0.77200   0.61980   0.11980   0.00000  Uiso   1.00
C501   C     0.30060   0.63450   0.63450   0.00000  Uiso   1.00
H502   H     0.27200   0.61980   0.61980   0.00000  Uiso   1.00
C503   C     0.19940   0.63450   0.86550   0.00000  Uiso   1.00
H504   H     0.22800   0.61980   0.88020   0.00000  Uiso   1.00
C505   C     0.69940   0.63450   0.36550   0.00000  Uiso   1.00
H506   H     0.72800   0.61980   0.38020   0.00000  Uiso   1.00
C507   C     0.80060   0.36550   0.86550   0.00000  Uiso   1.00
H508   H     0.77200   0.38020   0.88020   0.00000  Uiso   1.00
C509   C     0.30060   0.36550   0.36550   0.00000  Uiso   1.00
H510   H     0.27200   0.38020   0.38020   0.00000  Uiso   1.00
C511   C     0.30060   0.86550   0.86550   0.00000  Uiso   1.00
H512   H     0.27200   0.88020   0.88020   0.00000  Uiso   1.00
C513   C     0.36550   0.86550   0.80060   0.00000  Uiso   1.00
H514   H     0.38020   0.88020   0.77200   0.00000  Uiso   1.00
C515   C     0.36550   0.36550   0.30060   0.00000  Uiso   1.00
H516   H     0.38020   0.38020   0.27200   0.00000  Uiso   1.00
C517   C     0.86550   0.86550   0.30060   0.00000  Uiso   1.00
H518   H     0.88020   0.88020   0.27200   0.00000  Uiso   1.00
C519   C     0.63450   0.86550   0.19940   0.00000  Uiso   1.00
H520   H     0.61980   0.88020   0.22800   0.00000  Uiso   1.00
C521   C     0.63450   0.36550   0.69940   0.00000  Uiso   1.00
H522   H     0.61980   0.38020   0.72800   0.00000  Uiso   1.00
C523   C     0.63450   0.13450   0.80060   0.00000  Uiso   1.00
H524   H     0.61980   0.11980   0.77200   0.00000  Uiso   1.00
C525   C     0.63450   0.63450   0.30060   0.00000  Uiso   1.00
H526   H     0.61980   0.61980   0.27200   0.00000  Uiso   1.00
C527   C     0.36550   0.13450   0.19940   0.00000  Uiso   1.00
H528   H     0.38020   0.11980   0.22800   0.00000  Uiso   1.00
C529   C     0.36550   0.63450   0.69940   0.00000  Uiso   1.00
H530   H     0.38020   0.61980   0.72800   0.00000  Uiso   1.00
C531   C     0.86550   0.63450   0.19940   0.00000  Uiso   1.00
H532   H     0.88020   0.61980   0.22800   0.00000  Uiso   1.00
C533   C     0.86550   0.19940   0.63450   0.00000  Uiso   1.00
H534   H     0.88020   0.22800   0.61980   0.00000  Uiso   1.00
C535   C     0.86550   0.69940   0.13450   0.00000  Uiso   1.00
H536   H     0.88020   0.72800   0.11980   0.00000  Uiso   1.00
C537   C     0.86550   0.80060   0.36550   0.00000  Uiso   1.00
H538   H     0.88020   0.77200   0.38020   0.00000  Uiso   1.00
C539   C     0.86550   0.30060   0.86550   0.00000  Uiso   1.00
H540   H     0.88020   0.27200   0.88020   0.00000  Uiso   1.00
C541   C     0.13450   0.19940   0.36550   0.00000  Uiso   1.00
H542   H     0.11980   0.22800   0.38020   0.00000  Uiso   1.00
C543   C     0.13450   0.69940   0.86550   0.00000  Uiso   1.00
H544   H     0.11980   0.72800   0.88020   0.00000  Uiso   1.00
C545   C     0.63450   0.19940   0.86550   0.00000  Uiso   1.00
H546   H     0.61980   0.22800   0.88020   0.00000  Uiso   1.00
C547   C     0.13450   0.80060   0.63450   0.00000  Uiso   1.00
H548   H     0.11980   0.77200   0.61980   0.00000  Uiso   1.00
C549   C     0.13450   0.30060   0.13450   0.00000  Uiso   1.00
H550   H     0.11980   0.27200   0.11980   0.00000  Uiso   1.00
C551   C     0.63450   0.30060   0.63450   0.00000  Uiso   1.00
H552   H     0.61980   0.27200   0.61980   0.00000  Uiso   1.00
C553   C     0.63450   0.80060   0.13450   0.00000  Uiso   1.00
H554   H     0.61980   0.77200   0.11980   0.00000  Uiso   1.00
C555   C     0.36550   0.19940   0.13450   0.00000  Uiso   1.00
H556   H     0.38020   0.22800   0.11980   0.00000  Uiso   1.00
C557   C     0.36550   0.69940   0.63450   0.00000  Uiso   1.00
H558   H     0.38020   0.72800   0.61980   0.00000  Uiso   1.00
C559   C     0.36550   0.80060   0.86550   0.00000  Uiso   1.00
H560   H     0.38020   0.77200   0.88020   0.00000  Uiso   1.00
C561   C     0.36550   0.30060   0.36550   0.00000  Uiso   1.00
H562   H     0.38020   0.27200   0.38020   0.00000  Uiso   1.00
C563   C     0.63450   0.69940   0.36550   0.00000  Uiso   1.00
H564   H     0.61980   0.72800   0.38020   0.00000  Uiso   1.00
C565   C     0.13450   0.63450   0.80060   0.00000  Uiso   1.00
H566   H     0.11980   0.61980   0.77200   0.00000  Uiso   1.00
C567   C     0.13450   0.13450   0.30060   0.00000  Uiso   1.00
H568   H     0.11980   0.11980   0.27200   0.00000  Uiso   1.00
C569   C     0.13450   0.36550   0.19940   0.00000  Uiso   1.00
H570   H     0.11980   0.38020   0.22800   0.00000  Uiso   1.00
C571   C     0.13450   0.86550   0.69940   0.00000  Uiso   1.00
H572   H     0.11980   0.88020   0.72800   0.00000  Uiso   1.00
C573   C     0.86550   0.36550   0.80060   0.00000  Uiso   1.00
H574   H     0.88020   0.38020   0.77200   0.00000  Uiso   1.00
C575   C     0.86550   0.13450   0.69940   0.00000  Uiso   1.00
H576   H     0.88020   0.11980   0.72800   0.00000  Uiso   1.00
C577   C     0.80060   0.13450   0.63450   0.00000  Uiso   1.00
H578   H     0.77200   0.11980   0.61980   0.00000  Uiso   1.00
C579   C     0.30060   0.13450   0.13450   0.00000  Uiso   1.00
H580   H     0.27200   0.11980   0.11980   0.00000  Uiso   1.00
C581   C     0.19940   0.13450   0.36550   0.00000  Uiso   1.00
H582   H     0.22800   0.11980   0.38020   0.00000  Uiso   1.00
C583   C     0.69940   0.13450   0.86550   0.00000  Uiso   1.00
H584   H     0.72800   0.11980   0.88020   0.00000  Uiso   1.00
C585   C     0.80060   0.86550   0.36550   0.00000  Uiso   1.00
H586   H     0.77200   0.88020   0.38020   0.00000  Uiso   1.00
C587   C     0.69940   0.86550   0.13450   0.00000  Uiso   1.00
H588   H     0.72800   0.88020   0.11980   0.00000  Uiso   1.00
C589   C     0.30060   0.63450   0.36550   0.00000  Uiso   1.00
H590   H     0.27200   0.61980   0.38020   0.00000  Uiso   1.00
C591   C     0.19940   0.36550   0.86550   0.00000  Uiso   1.00
H592   H     0.22800   0.38020   0.88020   0.00000  Uiso   1.00
C593   C     0.69940   0.36550   0.36550   0.00000  Uiso   1.00
H594   H     0.72800   0.38020   0.38020   0.00000  Uiso   1.00
C595   C     0.80060   0.36550   0.13450   0.00000  Uiso   1.00
H596   H     0.77200   0.38020   0.11980   0.00000  Uiso   1.00
C597   C     0.30060   0.36550   0.63450   0.00000  Uiso   1.00
H598   H     0.27200   0.38020   0.61980   0.00000  Uiso   1.00
C599   C     0.19940   0.63450   0.13450   0.00000  Uiso   1.00
H600   H     0.22800   0.61980   0.11980   0.00000  Uiso   1.00
C601   C     0.63450   0.13450   0.19940   0.00000  Uiso   1.00
H602   H     0.61980   0.11980   0.22800   0.00000  Uiso   1.00
C603   C     0.36550   0.13450   0.80060   0.00000  Uiso   1.00
H604   H     0.38020   0.11980   0.77200   0.00000  Uiso   1.00
C605   C     0.36550   0.63450   0.30060   0.00000  Uiso   1.00
H606   H     0.38020   0.61980   0.27200   0.00000  Uiso   1.00
C607   C     0.36550   0.86550   0.19940   0.00000  Uiso   1.00
H608   H     0.38020   0.88020   0.22800   0.00000  Uiso   1.00
C609   C     0.36550   0.36550   0.69940   0.00000  Uiso   1.00
H610   H     0.38020   0.38020   0.72800   0.00000  Uiso   1.00
C611   C     0.63450   0.36550   0.30060   0.00000  Uiso   1.00
H612   H     0.61980   0.38020   0.27200   0.00000  Uiso   1.00
C613   C     0.13450   0.80060   0.36550   0.00000  Uiso   1.00
H614   H     0.11980   0.77200   0.38020   0.00000  Uiso   1.00
C615   C     0.13450   0.30060   0.86550   0.00000  Uiso   1.00
H616   H     0.11980   0.27200   0.88020   0.00000  Uiso   1.00
C617   C     0.13450   0.19940   0.63450   0.00000  Uiso   1.00
H618   H     0.11980   0.22800   0.61980   0.00000  Uiso   1.00
C619   C     0.13450   0.69940   0.13450   0.00000  Uiso   1.00
H620   H     0.11980   0.72800   0.11980   0.00000  Uiso   1.00
C621   C     0.86550   0.30060   0.13450   0.00000  Uiso   1.00
H622   H     0.88020   0.27200   0.11980   0.00000  Uiso   1.00
C623   C     0.86550   0.19940   0.36550   0.00000  Uiso   1.00
H624   H     0.88020   0.22800   0.38020   0.00000  Uiso   1.00
loop_
_geom_bond_atom_site_label_1
_geom_bond_atom_site_label_2
_geom_bond_distance
_geom_bond_site_symmetry_2
_ccdc_geom_bond_type
O1     Cu193   1.951   1_556 S
O1     C241    1.251   .     A
O2     Cu194   1.951   .     S
O2     C243    1.251   .     A
O3     Cu195   1.951   .     S
O3     C399    1.251   .     A
O4     Cu196   1.951   1_556 S
O4     C397    1.251   .     A
O5     Cu197   1.951   1_556 S
O5     C245    1.251   .     A
O6     Cu198   1.951   .     S
O6     C247    1.251   .     A
O7     Cu199   1.951   .     S
O7     C401    1.251   .     A
O8     Cu200   1.951   1_556 S
O8     C249    1.251   .     A
O9     Cu201   1.951   .     S
O9     C251    1.251   .     A
O10    Cu202   1.951   .     S
O10    C253    1.251   .     A
O11    Cu203   1.951   .     S
O11    C255    1.251   .     A
O12    Cu204   1.951   .     S
O12    C407    1.251   .     A
O13    Cu205   1.951   .     S
O13    C257    1.251   .     A
O14    Cu206   1.951   .     S
O14    C259    1.251   .     A
O15    Cu207   1.951   .     S
O15    C405    1.251   .     A
O16    Cu208   1.951   .     S
O16    C403    1.251   .     A
O17    Cu209   1.951   1_655 S
O17    C261    1.251   .     A
O18    Cu210   1.951   1_655 S
O18    C427    1.251   .     A
O19    Cu211   1.951   .     S
O19    C263    1.251   .     A
O20    Cu212   1.951   .     S
O20    C429    1.251   .     A
O21    Cu213   1.951   1_655 S
O21    C265    1.251   .     A
O22    Cu214   1.951   1_655 S
O22    C267    1.251   .     A
O23    Cu215   1.951   .     S
O23    C269    1.251   .     A
O24    Cu216   1.951   .     S
O24    C431    1.251   .     A
O25    Cu217   1.951   .     S
O25    C271    1.251   .     A
O26    Cu218   1.951   .     S
O26    C425    1.251   .     A
O27    Cu219   1.951   .     S
O27    C273    1.251   .     A
O28    Cu220   1.951   .     S
O28    C275    1.251   .     A
O29    Cu221   1.951   .     S
O29    C277    1.251   .     A
O30    Cu222   1.951   .     S
O30    C421    1.251   .     A
O31    Cu223   1.951   .     S
O31    C279    1.251   .     A
O32    Cu224   1.951   .     S
O32    C423    1.251   .     A
O33    Cu225   1.951   1_565 S
O33    C281    1.251   .     A
O34    Cu226   1.951   .     S
O34    C283    1.251   .     A
O35    Cu227   1.951   1_565 S
O35    C417    1.251   .     A
O36    Cu228   1.951   .     S
O36    C419    1.251   .     A
O37    Cu229   1.951   1_565 S
O37    C285    1.251   .     A
O38    Cu230   1.951   .     S
O38    C287    1.251   .     A
O39    Cu231   1.951   1_565 S
O39    C289    1.251   .     A
O40    Cu232   1.951   .     S
O40    C415    1.251   .     A
O41    Cu233   1.951   .     S
O41    C291    1.251   .     A
O42    Cu234   1.951   .     S
O42    C293    1.251   .     A
O43    Cu235   1.951   .     S
O43    C409    1.251   .     A
O44    Cu236   1.951   .     S
O44    C411    1.251   .     A
O45    Cu237   1.951   .     S
O45    C295    1.251   .     A
O46    Cu238   1.951   .     S
O46    C297    1.251   .     A
O47    Cu239   1.951   .     S
O47    C413    1.251   .     A
O48    Cu240   1.951   .     S
O48    C299    1.251   .     A
O49    Cu193   1.951   .     S
O49    C301    1.251   .     A
O50    Cu194   1.951   .     S
O50    C303    1.251   .     A
O51    Cu195   1.951   .     S
O51    C363    1.251   .     A
O52    Cu196   1.951   .     S
O52    C361    1.251   .     A
O53    Cu197   1.951   .     S
O53    C305    1.251   .     A
O54    Cu198   1.951   .     S
O54    C307    1.251   .     A
O55    Cu199   1.951   .     S
O55    C365    1.251   .     A
O56    Cu200   1.951   .     S
O56    C309    1.251   .     A
O57    Cu205   1.951   1_556 S
O57    C311    1.251   .     A
O58    Cu206   1.951   .     S
O58    C313    1.251   .     A
O59    Cu207   1.951   .     S
O59    C371    1.251   .     A
O60    Cu208   1.951   1_556 S
O60    C369    1.251   .     A
O61    Cu201   1.951   1_556 S
O61    C315    1.251   .     A
O62    Cu202   1.951   .     S
O62    C317    1.251   .     A
O63    Cu203   1.951   .     S
O63    C319    1.251   .     A
O64    Cu204   1.951   1_556 S
O64    C367    1.251   .     A
O65    Cu233   1.951   1_565 S
O65    C321    1.251   .     A
O66    Cu234   1.951   .     S
O66    C323    1.251   .     A
O67    Cu235   1.951   1_565 S
O67    C391    1.251   .     A
O68    Cu236   1.951   .     S
O68    C393    1.251   .     A
O69    Cu237   1.951   1_565 S
O69    C325    1.251   .     A
O70    Cu238   1.951   .     S
O70    C327    1.251   .     A
O71    Cu239   1.951   1_565 S
O71    C395    1.251   .     A
O72    Cu240   1.951   .     S
O72    C329    1.251   .     A
O73    Cu229   1.951   .     S
O73    C331    1.251   .     A
O74    Cu230   1.951   .     S
O74    C333    1.251   .     A
O75    Cu231   1.951   .     S
O75    C335    1.251   .     A
O76    Cu232   1.951   .     S
O76    C389    1.251   .     A
O77    Cu225   1.951   .     S
O77    C337    1.251   .     A
O78    Cu226   1.951   .     S
O78    C339    1.251   .     A
O79    Cu227   1.951   .     S
O79    C385    1.251   .     A
O80    Cu228   1.951   .     S
O80    C387    1.251   .     A
O81    Cu221   1.951   1_655 S
O81    C341    1.251   .     A
O82    Cu222   1.951   1_655 S
O82    C381    1.251   .     A
O83    Cu223   1.951   .     S
O83    C343    1.251   .     A
O84    Cu224   1.951   .     S
O84    C383    1.251   .     A
O85    Cu217   1.951   1_655 S
O85    C345    1.251   .     A
O86    Cu218   1.951   1_655 S
O86    C379    1.251   .     A
O87    Cu219   1.951   .     S
O87    C347    1.251   .     A
O88    Cu220   1.951   .     S
O88    C349    1.251   .     A
O89    Cu209   1.951   .     S
O89    C351    1.251   .     A
O90    Cu210   1.951   .     S
O90    C373    1.251   .     A
O91    Cu211   1.951   .     S
O91    C353    1.251   .     A
O92    Cu212   1.951   .     S
O92    C375    1.251   .     A
O93    Cu213   1.951   .     S
O93    C355    1.251   .     A
O94    Cu214   1.951   .     S
O94    C357    1.251   .     A
O95    Cu215   1.951   .     S
O95    C359    1.251   .     A
O96    Cu216   1.951   .     S
O96    C377    1.251   .     A
O97    Cu197   1.951   .     S
O97    C361    1.251   .     A
O98    Cu198   1.951   .     S
O98    C363    1.251   .     A
O99    Cu199   1.951   .     S
O99    C303    1.251   .     A
O100   Cu200   1.951   .     S
O100   C301    1.251   .     A
O101   Cu193   1.951   .     S
O101   C309    1.251   .     A
O102   Cu194   1.951   .     S
O102   C365    1.251   .     A
O103   Cu195   1.951   .     S
O103   C307    1.251   .     A
O104   Cu196   1.951   .     S
O104   C305    1.251   .     A
O105   Cu205   1.951   1_556 S
O105   C367    1.251   .     A
O106   Cu206   1.951   .     S
O106   C319    1.251   .     A
O107   Cu207   1.951   .     S
O107   C317    1.251   .     A
O108   Cu208   1.951   1_556 S
O108   C315    1.251   .     A
O109   Cu201   1.951   1_556 S
O109   C369    1.251   .     A
O110   Cu202   1.951   .     S
O110   C371    1.251   .     A
O111   Cu203   1.951   .     S
O111   C313    1.251   .     A
O112   Cu204   1.951   1_556 S
O112   C311    1.251   .     A
O113   Cu213   1.951   .     S
O113   C373    1.251   .     A
O114   Cu214   1.951   .     S
O114   C351    1.251   .     A
O115   Cu215   1.951   .     S
O115   C375    1.251   .     A
O116   Cu216   1.951   .     S
O116   C353    1.251   .     A
O117   Cu209   1.951   .     S
O117   C357    1.251   .     A
O118   Cu210   1.951   .     S
O118   C355    1.251   .     A
O119   Cu211   1.951   .     S
O119   C377    1.251   .     A
O120   Cu212   1.951   .     S
O120   C359    1.251   .     A
O121   Cu221   1.951   1_655 S
O121   C379    1.251   .     A
O122   Cu222   1.951   1_655 S
O122   C345    1.251   .     A
O123   Cu223   1.951   .     S
O123   C349    1.251   .     A
O124   Cu224   1.951   .     S
O124   C347    1.251   .     A
O125   Cu217   1.951   1_655 S
O125   C381    1.251   .     A
O126   Cu218   1.951   1_655 S
O126   C341    1.251   .     A
O127   Cu219   1.951   .     S
O127   C383    1.251   .     A
O128   Cu220   1.951   .     S
O128   C343    1.251   .     A
O129   Cu229   1.951   .     S
O129   C385    1.251   .     A
O130   Cu230   1.951   .     S
O130   C387    1.251   .     A
O131   Cu231   1.951   .     S
O131   C337    1.251   .     A
O132   Cu232   1.951   .     S
O132   C339    1.251   .     A
O133   Cu225   1.951   .     S
O133   C335    1.251   .     A
O134   Cu226   1.951   .     S
O134   C389    1.251   .     A
O135   Cu227   1.951   .     S
O135   C331    1.251   .     A
O136   Cu228   1.951   .     S
O136   C333    1.251   .     A
O137   Cu237   1.951   1_565 S
O137   C391    1.251   .     A
O138   Cu238   1.951   .     S
O138   C393    1.251   .     A
O139   Cu239   1.951   1_565 S
O139   C321    1.251   .     A
O140   Cu240   1.951   .     S
O140   C323    1.251   .     A
O141   Cu233   1.951   1_565 S
O141   C395    1.251   .     A
O142   Cu234   1.951   .     S
O142   C329    1.251   .     A
O143   Cu235   1.951   1_565 S
O143   C325    1.251   .     A
O144   Cu236   1.951   .     S
O144   C327    1.251   .     A
O145   Cu197   1.951   1_556 S
O145   C397    1.251   .     A
O146   Cu198   1.951   .     S
O146   C399    1.251   .     A
O147   Cu199   1.951   .     S
O147   C243    1.251   .     A
O148   Cu200   1.951   1_556 S
O148   C241    1.251   .     A
O149   Cu193   1.951   1_556 S
O149   C249    1.251   .     A
O150   Cu194   1.951   .     S
O150   C401    1.251   .     A
O151   Cu195   1.951   .     S
O151   C247    1.251   .     A
O152   Cu196   1.951   1_556 S
O152   C245    1.251   .     A
O153   Cu201   1.951   .     S
O153   C403    1.251   .     A
O154   Cu202   1.951   .     S
O154   C405    1.251   .     A
O155   Cu203   1.951   .     S
O155   C259    1.251   .     A
O156   Cu204   1.951   .     S
O156   C257    1.251   .     A
O157   Cu205   1.951   .     S
O157   C407    1.251   .     A
O158   Cu206   1.951   .     S
O158   C255    1.251   .     A
O159   Cu207   1.951   .     S
O159   C253    1.251   .     A
O160   Cu208   1.951   .     S
O160   C251    1.251   .     A
O161   Cu237   1.951   .     S
O161   C409    1.251   .     A
O162   Cu238   1.951   .     S
O162   C411    1.251   .     A
O163   Cu239   1.951   .     S
O163   C291    1.251   .     A
O164   Cu240   1.951   .     S
O164   C293    1.251   .     A
O165   Cu233   1.951   .     S
O165   C413    1.251   .     A
O166   Cu234   1.951   .     S
O166   C299    1.251   .     A
O167   Cu235   1.951   .     S
O167   C295    1.251   .     A
O168   Cu236   1.951   .     S
O168   C297    1.251   .     A
O169   Cu225   1.951   1_565 S
O169   C289    1.251   .     A
O170   Cu226   1.951   .     S
O170   C415    1.251   .     A
O171   Cu227   1.951   1_565 S
O171   C285    1.251   .     A
O172   Cu228   1.951   .     S
O172   C287    1.251   .     A
O173   Cu229   1.951   1_565 S
O173   C417    1.251   .     A
O174   Cu230   1.951   .     S
O174   C419    1.251   .     A
O175   Cu231   1.951   1_565 S
O175   C281    1.251   .     A
O176   Cu232   1.951   .     S
O176   C283    1.251   .     A
O177   Cu217   1.951   .     S
O177   C421    1.251   .     A
O178   Cu218   1.951   .     S
O178   C277    1.251   .     A
O179   Cu219   1.951   .     S
O179   C423    1.251   .     A
O180   Cu220   1.951   .     S
O180   C279    1.251   .     A
O181   Cu221   1.951   .     S
O181   C425    1.251   .     A
O182   Cu222   1.951   .     S
O182   C271    1.251   .     A
O183   Cu223   1.951   .     S
O183   C275    1.251   .     A
O184   Cu224   1.951   .     S
O184   C273    1.251   .     A
O185   Cu213   1.951   1_655 S
O185   C427    1.251   .     A
O186   Cu214   1.951   1_655 S
O186   C261    1.251   .     A
O187   Cu215   1.951   .     S
O187   C429    1.251   .     A
O188   Cu216   1.951   .     S
O188   C263    1.251   .     A
O189   Cu209   1.951   1_655 S
O189   C267    1.251   .     A
O190   Cu210   1.951   1_655 S
O190   C265    1.251   .     A
O191   Cu211   1.951   .     S
O191   C431    1.251   .     A
O192   Cu212   1.951   .     S
O192   C269    1.251   .     A
Cu193  O1      1.951   1_554 S
Cu193  O149    1.951   1_554 S
Cu193  Cu200   2.630   .     S
Cu194  Cu199   2.630   .     S
Cu195  Cu198   2.630   .     S
Cu196  O4      1.951   1_554 S
Cu196  O152    1.951   1_554 S
Cu196  Cu197   2.630   .     S
Cu197  O5      1.951   1_554 S
Cu197  O145    1.951   1_554 S
Cu200  O8      1.951   1_554 S
Cu200  O148    1.951   1_554 S
Cu201  O61     1.951   1_554 S
Cu201  O109    1.951   1_554 S
Cu201  Cu208   2.630   .     S
Cu202  Cu207   2.630   .     S
Cu203  Cu206   2.630   .     S
Cu204  O64     1.951   1_554 S
Cu204  O112    1.951   1_554 S
Cu204  Cu205   2.630   .     S
Cu205  O57     1.951   1_554 S
Cu205  O105    1.951   1_554 S
Cu208  O60     1.951   1_554 S
Cu208  O108    1.951   1_554 S
Cu209  O17     1.951   1_455 S
Cu209  O189    1.951   1_455 S
Cu209  Cu214   2.630   .     S
Cu210  O18     1.951   1_455 S
Cu210  O190    1.951   1_455 S
Cu210  Cu213   2.630   .     S
Cu211  Cu216   2.630   .     S
Cu212  Cu215   2.630   .     S
Cu213  O21     1.951   1_455 S
Cu213  O185    1.951   1_455 S
Cu214  O22     1.951   1_455 S
Cu214  O186    1.951   1_455 S
Cu217  O85     1.951   1_455 S
Cu217  O125    1.951   1_455 S
Cu217  Cu222   2.630   .     S
Cu218  O86     1.951   1_455 S
Cu218  O126    1.951   1_455 S
Cu218  Cu221   2.630   .     S
Cu219  Cu224   2.630   .     S
Cu220  Cu223   2.630   .     S
Cu221  O81     1.951   1_455 S
Cu221  O121    1.951   1_455 S
Cu222  O82     1.951   1_455 S
Cu222  O122    1.951   1_455 S
Cu225  O33     1.951   1_545 S
Cu225  O169    1.951   1_545 S
Cu225  Cu231   2.630   .     S
Cu226  Cu232   2.630   .     S
Cu227  O35     1.951   1_545 S
Cu227  O171    1.951   1_545 S
Cu227  Cu229   2.630   .     S
Cu228  Cu230   2.630   .     S
Cu229  O37     1.951   1_545 S
Cu229  O173    1.951   1_545 S
Cu231  O39     1.951   1_545 S
Cu231  O175    1.951   1_545 S
Cu233  O65     1.951   1_545 S
Cu233  O141    1.951   1_545 S
Cu233  Cu239   2.630   .     S
Cu234  Cu240   2.630   .     S
Cu235  O67     1.951   1_545 S
Cu235  O143    1.951   1_545 S
Cu235  Cu237   2.630   .     S
Cu236  Cu238   2.630   .     S
Cu237  O69     1.951   1_545 S
Cu237  O137    1.951   1_545 S
Cu239  O71     1.951   1_545 S
Cu239  O139    1.951   1_545 S
C241   C242    1.498   .     S
C242   C433    1.397   .     A
C242   C491    1.397   .     A
C243   C244    1.498   .     S
C244   C435    1.397   .     A
C244   C589    1.397   .     A
C245   C246    1.498   .     S
C246   C439    1.397   .     A
C246   C475    1.397   .     A
C247   C248    1.498   .     S
C248   C441    1.397   .     A
C248   C593    1.397   .     A
C249   C250    1.498   .     S
C250   C591    1.397   .     A
C250   C615    1.397   .     A
C251   C252    1.498   .     S
C252   C443    1.397   .     A
C252   C483    1.397   .     A
C253   C254    1.498   .     S
C254   C445    1.397   .     A
C254   C485    1.397   .     A
C255   C256    1.498   .     S
C256   C481    1.397   .     A
C256   C617    1.397   .     A
C257   C258    1.498   .     S
C258   C447    1.397   .     A
C258   C479    1.397   .     A
C259   C260    1.498   .     S
C260   C449    1.397   .     A
C260   C597    1.397   .     A
C261   C262    1.498   .     S
C262   C453    1.397   .     A
C262   C621    1.397   .     A
C263   C264    1.498   .     S
C264   C609    1.397   .     A
C264   C449    1.397   .     A
C265   C266    1.498   .     S
C266   C457    1.397   .     A
C266   C437    1.397   .     A
C267   C268    1.498   .     S
C268   C623    1.397   .     A
C268   C459    1.397   .     A
C269   C270    1.498   .     S
C270   C605    1.397   .     A
C270   C435    1.397   .     A
C271   C272    1.498   .     S
C272   C461    1.397   .     A
C272   C619    1.397   .     A
C273   C274    1.498   .     S
C274   C465    1.397   .     A
C274   C445    1.397   .     A
C275   C276    1.498   .     S
C276   C443    1.397   .     A
C276   C601    1.397   .     A
C277   C278    1.498   .     S
C278   C467    1.397   .     A
C278   C615    1.397   .     A
C279   C280    1.498   .     S
C280   C611    1.397   .     A
C280   C441    1.397   .     A
C281   C282    1.498   .     S
C282   C473    1.397   .     A
C282   C469    1.397   .     A
C283   C284    1.498   .     S
C284   C591    1.397   .     A
C284   C467    1.397   .     A
C285   C286    1.498   .     S
C286   C477    1.397   .     A
C286   C455    1.397   .     A
C287   C288    1.498   .     S
C288   C595    1.397   .     A
C288   C453    1.397   .     A
C289   C290    1.498   .     S
C290   C607    1.397   .     A
C290   C479    1.397   .     A
C291   C292    1.498   .     S
C292   C481    1.397   .     A
C292   C463    1.397   .     A
C293   C294    1.498   .     S
C294   C599    1.397   .     A
C294   C461    1.397   .     A
C295   C296    1.498   .     S
C296   C487    1.397   .     A
C296   C459    1.397   .     A
C297   C298    1.498   .     S
C298   C489    1.397   .     A
C298   C457    1.397   .     A
C299   C300    1.498   .     S
C300   C605    1.397   .     A
C300   C589    1.397   .     A
C301   C302    1.498   .     S
C302   C493    1.397   .     A
C302   C549    1.397   .     A
C303   C304    1.498   .     S
C304   C495    1.397   .     A
C304   C547    1.397   .     A
C305   C306    1.498   .     S
C306   C499    1.397   .     A
C306   C535    1.397   .     A
C307   C308    1.498   .     S
C308   C577    1.397   .     A
C308   C533    1.397   .     A
C309   C310    1.498   .     S
C310   C555    1.397   .     A
C310   C579    1.397   .     A
C311   C312    1.498   .     S
C312   C503    1.397   .     A
C312   C543    1.397   .     A
C313   C314    1.498   .     S
C314   C581    1.397   .     A
C314   C541    1.397   .     A
C315   C316    1.498   .     S
C316   C507    1.397   .     A
C316   C539    1.397   .     A
C317   C318    1.498   .     S
C318   C585    1.397   .     A
C318   C537    1.397   .     A
C319   C320    1.498   .     S
C320   C561    1.397   .     A
C320   C509    1.397   .     A
C321   C322    1.498   .     S
C322   C513    1.397   .     A
C322   C511    1.397   .     A
C323   C324    1.498   .     S
C324   C515    1.397   .     A
C324   C509    1.397   .     A
C325   C326    1.498   .     S
C326   C519    1.397   .     A
C326   C587    1.397   .     A
C327   C328    1.498   .     S
C328   C521    1.397   .     A
C328   C497    1.397   .     A
C329   C330    1.498   .     S
C330   C493    1.397   .     A
C330   C569    1.397   .     A
C331   C332    1.498   .     S
C332   C523    1.397   .     A
C332   C583    1.397   .     A
C333   C334    1.498   .     S
C334   C525    1.397   .     A
C334   C505    1.397   .     A
C335   C336    1.498   .     S
C336   C581    1.397   .     A
C336   C567    1.397   .     A
C337   C338    1.498   .     S
C338   C527    1.397   .     A
C338   C579    1.397   .     A
C339   C340    1.498   .     S
C340   C529    1.397   .     A
C340   C501    1.397   .     A
C341   C342    1.498   .     S
C342   C533    1.397   .     A
C342   C575    1.397   .     A
C343   C344    1.498   .     S
C344   C555    1.397   .     A
C344   C527    1.397   .     A
C345   C346    1.498   .     S
C346   C537    1.397   .     A
C346   C517    1.397   .     A
C347   C348    1.498   .     S
C348   C559    1.397   .     A
C348   C513    1.397   .     A
C349   C350    1.498   .     S
C350   C515    1.397   .     A
C350   C561    1.397   .     A
C351   C352    1.498   .     S
C352   C541    1.397   .     A
C352   C567    1.397   .     A
C353   C354    1.498   .     S
C354   C545    1.397   .     A
C354   C523    1.397   .     A
C355   C356    1.498   .     S
C356   C547    1.397   .     A
C356   C571    1.397   .     A
C357   C358    1.498   .     S
C358   C569    1.397   .     A
C358   C549    1.397   .     A
C359   C360    1.498   .     S
C360   C553    1.397   .     A
C360   C519    1.397   .     A
C361   C362    1.498   .     S
C362   C553    1.397   .     A
C362   C587    1.397   .     A
C363   C364    1.498   .     S
C364   C551    1.397   .     A
C364   C497    1.397   .     A
C365   C366    1.498   .     S
C366   C557    1.397   .     A
C366   C501    1.397   .     A
C367   C368    1.498   .     S
C368   C559    1.397   .     A
C368   C511    1.397   .     A
C369   C370    1.498   .     S
C370   C545    1.397   .     A
C370   C583    1.397   .     A
C371   C372    1.498   .     S
C372   C563    1.397   .     A
C372   C505    1.397   .     A
C373   C374    1.498   .     S
C374   C565    1.397   .     A
C374   C543    1.397   .     A
C375   C376    1.498   .     S
C376   C525    1.397   .     A
C376   C563    1.397   .     A
C377   C378    1.498   .     S
C378   C521    1.397   .     A
C378   C551    1.397   .     A
C379   C380    1.498   .     S
C380   C573    1.397   .     A
C380   C539    1.397   .     A
C381   C382    1.498   .     S
C382   C531    1.397   .     A
C382   C535    1.397   .     A
C383   C384    1.498   .     S
C384   C529    1.397   .     A
C384   C557    1.397   .     A
C385   C386    1.498   .     S
C386   C577    1.397   .     A
C386   C575    1.397   .     A
C387   C388    1.498   .     S
C388   C499    1.397   .     A
C388   C531    1.397   .     A
C389   C390    1.498   .     S
C390   C503    1.397   .     A
C390   C565    1.397   .     A
C391   C392    1.498   .     S
C392   C585    1.397   .     A
C392   C517    1.397   .     A
C393   C394    1.498   .     S
C394   C507    1.397   .     A
C394   C573    1.397   .     A
C395   C396    1.498   .     S
C396   C495    1.397   .     A
C396   C571    1.397   .     A
C397   C398    1.498   .     S
C398   C489    1.397   .     A
C398   C437    1.397   .     A
C399   C400    1.498   .     S
C400   C487    1.397   .     A
C400   C623    1.397   .     A
C401   C402    1.498   .     S
C402   C473    1.397   .     A
C402   C613    1.397   .     A
C403   C404    1.498   .     S
C404   C595    1.397   .     A
C404   C621    1.397   .     A
C405   C406    1.498   .     S
C406   C477    1.397   .     A
C406   C451    1.397   .     A
C407   C408    1.498   .     S
C408   C599    1.397   .     A
C408   C619    1.397   .     A
C409   C410    1.498   .     S
C410   C601    1.397   .     A
C410   C483    1.397   .     A
C411   C412    1.498   .     S
C412   C465    1.397   .     A
C412   C485    1.397   .     A
C413   C414    1.498   .     S
C414   C603    1.397   .     A
C414   C491    1.397   .     A
C415   C416    1.498   .     S
C416   C609    1.397   .     A
C416   C597    1.397   .     A
C417   C418    1.498   .     S
C418   C471    1.397   .     A
C418   C475    1.397   .     A
C419   C420    1.498   .     S
C420   C611    1.397   .     A
C420   C593    1.397   .     A
C421   C422    1.498   .     S
C422   C613    1.397   .     A
C422   C469    1.397   .     A
C423   C424    1.498   .     S
C424   C439    1.397   .     A
C424   C471    1.397   .     A
C425   C426    1.498   .     S
C426   C617    1.397   .     A
C426   C463    1.397   .     A
C427   C428    1.498   .     S
C428   C451    1.397   .     A
C428   C455    1.397   .     A
C429   C430    1.498   .     S
C430   C447    1.397   .     A
C430   C607    1.397   .     A
C431   C432    1.498   .     S
C432   C433    1.397   .     A
C432   C603    1.397   .     A
C433   H434    0.931   .     S
C435   H436    0.931   .     S
C437   H438    0.931   .     S
C439   H440    0.931   .     S
C441   H442    0.931   .     S
C443   H444    0.931   .     S
C445   H446    0.931   .     S
C447   H448    0.931   .     S
C449   H450    0.931   .     S
C451   H452    0.931   .     S
C453   H454    0.931   .     S
C455   H456    0.931   .     S
C457   H458    0.931   .     S
C459   H460    0.931   .     S
C461   H462    0.931   .     S
C463   H464    0.931   .     S
C465   H466    0.931   .     S
C467   H468    0.931   .     S
C469   H470    0.931   .     S
C471   H472    0.931   .     S
C473   H474    0.931   .     S
C475   H476    0.931   .     S
C477   H478    0.931   .     S
C479   H480    0.931   .     S
C481   H482    0.931   .     S
C483   H484    0.931   .     S
C485   H486    0.931   .     S
C487   H488    0.931   .     S
C489   H490    0.931   .     S
C491   H492    0.931   .     S
C493   H494    0.931   .     S
C495   H496    0.931   .     S
C497   H498    0.931   .     S
C499   H500    0.931   .     S
C501   H502    0.931   .     S
C503   H504    0.931   .     S
C505   H506    0.931   .     S
C507   H508    0.931   .     S
C509   H510    0.931   .     S
C511   H512    0.931   .     S
C513   H514    0.931   .     S
C515   H516    0.931   .     S
C517   H518    0.931   .     S
C519   H520    0.931   .     S
C521   H522    0.931   .     S
C523   H524    0.931   .     S
C525   H526    0.931   .     S
C527   H528    0.931   .     S
C529   H530    0.931   .     S
C531   H532    0.931   .     S
C533   H534    0.931   .     S
C535   H536    0.931   .     S
C537   H538    0.931   .     S
C539   H540    0.931   .     S
C541   H542    0.931   .     S
C543   H544    0.931   .     S
C545   H546    0.931   .     S
C547   H548    0.931   .     S
C549   H550    0.931   .     S
C551   H552    0.931   .     S
C553   H554    0.931   .     S
C555   H556    0.931   .     S
C557   H558    0.931   .     S
C559   H560    0.931   .     S
C561   H562    0.931   .     S
C563   H564    0.931   .     S
C565   H566    0.931   .     S
C567   H568    0.931   .     S
C569   H570    0.931   .     S
C571   H572    0.931   .     S
C573   H574    0.931   .     S
C575   H576    0.931   .     S
C577   H578    0.931   .     S
C579   H580    0.931   .     S
C581   H582    0.931   .     S
C583   H584    0.931   .     S
C585   H586    0.931   .     S
C587   H588    0.931   .     S
C589   H590    0.931   .     S
C591   H592    0.931   .     S
C593   H594    0.931   .     S
C595   H596    0.931   .     S
C597   H598    0.931   .     S
C599   H600    0.931   .     S
C601   H602    0.931   .     S
C603   H604    0.931   .     S
C605   H606    0.931   .     S
C607   H608    0.931   .     S
C609   H610    0.931   .     S
C611   H612    0.931   .     S
C613   H614    0.931   .     S
C615   H616    0.931   .     S
C617   H618    0.931   .     S
C619   H620    0.931   .     S
C621   H622    0.931   .     S
C623   H624    0.931   .     S
