data_IRMOF-1\(2)
_audit_creation_date              2015-06-25
_audit_creation_method            'Materials Studio'
_symmetry_space_group_name_H-M    'P1'
_symmetry_Int_Tables_number       1
_symmetry_cell_setting            triclinic
loop_
_symmetry_equiv_pos_as_xyz
  x,y,z
_cell_length_a                    25.8320
_cell_length_b                    25.8320
_cell_length_c                    25.8320
_cell_angle_alpha                 90.0000
_cell_angle_beta                  90.0000
_cell_angle_gamma                 90.0000
loop_
_atom_site_label
_atom_site_type_symbol
_atom_site_fract_x
_atom_site_fract_y
_atom_site_fract_z
_atom_site_U_iso_or_equiv
_atom_site_adp_type
_atom_site_occupancy
Zn1    Zn    0.29340   0.20660   0.20660   0.00000  Uiso   1.00
Zn2    Zn    0.29340   0.70660   0.70660   0.00000  Uiso   1.00
Zn3    Zn    0.70660   0.79340   0.20660   0.00000  Uiso   1.00
Zn4    Zn    0.70660   0.29340   0.70660   0.00000  Uiso   1.00
Zn5    Zn    0.20660   0.29340   0.20660   0.00000  Uiso   1.00
Zn6    Zn    0.70660   0.20660   0.79340   0.00000  Uiso   1.00
Zn7    Zn    0.70660   0.70660   0.29340   0.00000  Uiso   1.00
Zn8    Zn    0.20660   0.20660   0.29340   0.00000  Uiso   1.00
Zn9    Zn    0.29340   0.79340   0.79340   0.00000  Uiso   1.00
Zn10   Zn    0.29340   0.29340   0.29340   0.00000  Uiso   1.00
Zn11   Zn    0.20660   0.70660   0.79340   0.00000  Uiso   1.00
Zn12   Zn    0.79340   0.70660   0.20660   0.00000  Uiso   1.00
Zn13   Zn    0.79340   0.29340   0.79340   0.00000  Uiso   1.00
Zn14   Zn    0.79340   0.20660   0.70660   0.00000  Uiso   1.00
Zn15   Zn    0.20660   0.79340   0.70660   0.00000  Uiso   1.00
Zn16   Zn    0.79340   0.79340   0.29340   0.00000  Uiso   1.00
Zn17   Zn    0.20660   0.29340   0.79340   0.00000  Uiso   1.00
Zn18   Zn    0.79340   0.70660   0.79340   0.00000  Uiso   1.00
Zn19   Zn    0.79340   0.20660   0.29340   0.00000  Uiso   1.00
Zn20   Zn    0.29340   0.20660   0.79340   0.00000  Uiso   1.00
Zn21   Zn    0.20660   0.70660   0.20660   0.00000  Uiso   1.00
Zn22   Zn    0.79340   0.29340   0.20660   0.00000  Uiso   1.00
Zn23   Zn    0.29340   0.29340   0.70660   0.00000  Uiso   1.00
Zn24   Zn    0.29340   0.70660   0.29340   0.00000  Uiso   1.00
Zn25   Zn    0.70660   0.20660   0.20660   0.00000  Uiso   1.00
Zn26   Zn    0.70660   0.70660   0.70660   0.00000  Uiso   1.00
Zn27   Zn    0.70660   0.79340   0.79340   0.00000  Uiso   1.00
Zn28   Zn    0.70660   0.29340   0.29340   0.00000  Uiso   1.00
Zn29   Zn    0.20660   0.79340   0.29340   0.00000  Uiso   1.00
Zn30   Zn    0.29340   0.79340   0.20660   0.00000  Uiso   1.00
Zn31   Zn    0.20660   0.20660   0.70660   0.00000  Uiso   1.00
Zn32   Zn    0.79340   0.79340   0.70660   0.00000  Uiso   1.00
O33    O     0.25000   0.25000   0.25000   0.00000  Uiso   1.00
O34    O     0.75000   0.75000   0.25000   0.00000  Uiso   1.00
O35    O     0.75000   0.25000   0.75000   0.00000  Uiso   1.00
O36    O     0.25000   0.75000   0.75000   0.00000  Uiso   1.00
O37    O     0.25000   0.25000   0.75000   0.00000  Uiso   1.00
O38    O     0.75000   0.75000   0.75000   0.00000  Uiso   1.00
O39    O     0.75000   0.25000   0.25000   0.00000  Uiso   1.00
O40    O     0.25000   0.75000   0.25000   0.00000  Uiso   1.00
O41    O     0.28190   0.21810   0.13400   0.00000  Uiso   1.00
C42    C     0.28290   0.21710   0.02690   0.00000  Uiso   1.00
H43    H     0.30490   0.19510   0.04480   0.00000  Uiso   1.00
O44    O     0.28190   0.71810   0.63400   0.00000  Uiso   1.00
C45    C     0.28290   0.71710   0.52690   0.00000  Uiso   1.00
H46    H     0.30490   0.69510   0.54480   0.00000  Uiso   1.00
O47    O     0.71810   0.78190   0.13400   0.00000  Uiso   1.00
C48    C     0.71710   0.78290   0.02690   0.00000  Uiso   1.00
H49    H     0.69510   0.80490   0.04480   0.00000  Uiso   1.00
O50    O     0.71810   0.28190   0.63400   0.00000  Uiso   1.00
C51    C     0.71710   0.28290   0.52690   0.00000  Uiso   1.00
H52    H     0.69510   0.30490   0.54480   0.00000  Uiso   1.00
O53    O     0.21810   0.28190   0.13400   0.00000  Uiso   1.00
C54    C     0.21710   0.28290   0.02690   0.00000  Uiso   1.00
H55    H     0.19510   0.30490   0.04480   0.00000  Uiso   1.00
O56    O     0.71810   0.21810   0.86600   0.00000  Uiso   1.00
C57    C     0.71710   0.21710   0.97310   0.00000  Uiso   1.00
H58    H     0.69510   0.19510   0.95520   0.00000  Uiso   1.00
O59    O     0.71810   0.71810   0.36600   0.00000  Uiso   1.00
C60    C     0.71710   0.71710   0.47310   0.00000  Uiso   1.00
H61    H     0.69510   0.69510   0.45520   0.00000  Uiso   1.00
O62    O     0.21810   0.21810   0.36600   0.00000  Uiso   1.00
C63    C     0.21710   0.21710   0.47310   0.00000  Uiso   1.00
H64    H     0.19510   0.19510   0.45520   0.00000  Uiso   1.00
O65    O     0.28190   0.78190   0.86600   0.00000  Uiso   1.00
C66    C     0.28290   0.78290   0.97310   0.00000  Uiso   1.00
H67    H     0.30490   0.80490   0.95520   0.00000  Uiso   1.00
O68    O     0.28190   0.28190   0.36600   0.00000  Uiso   1.00
C69    C     0.28290   0.28290   0.47310   0.00000  Uiso   1.00
H70    H     0.30490   0.30490   0.45520   0.00000  Uiso   1.00
O71    O     0.13400   0.28190   0.21810   0.00000  Uiso   1.00
C72    C     0.02690   0.28290   0.21710   0.00000  Uiso   1.00
H73    H     0.04480   0.30490   0.19510   0.00000  Uiso   1.00
O74    O     0.63400   0.28190   0.71810   0.00000  Uiso   1.00
C75    C     0.52690   0.28290   0.71710   0.00000  Uiso   1.00
H76    H     0.54480   0.30490   0.69510   0.00000  Uiso   1.00
O77    O     0.13400   0.71810   0.78190   0.00000  Uiso   1.00
C78    C     0.02690   0.71710   0.78290   0.00000  Uiso   1.00
H79    H     0.04480   0.69510   0.80490   0.00000  Uiso   1.00
O80    O     0.13400   0.21810   0.28190   0.00000  Uiso   1.00
C81    C     0.02690   0.21710   0.28290   0.00000  Uiso   1.00
H82    H     0.04480   0.19510   0.30490   0.00000  Uiso   1.00
O83    O     0.63400   0.71810   0.28190   0.00000  Uiso   1.00
C84    C     0.52690   0.71710   0.28290   0.00000  Uiso   1.00
H85    H     0.54480   0.69510   0.30490   0.00000  Uiso   1.00
O86    O     0.86600   0.71810   0.21810   0.00000  Uiso   1.00
C87    C     0.97310   0.71710   0.21710   0.00000  Uiso   1.00
H88    H     0.95520   0.69510   0.19510   0.00000  Uiso   1.00
O89    O     0.36600   0.71810   0.71810   0.00000  Uiso   1.00
C90    C     0.47310   0.71710   0.71710   0.00000  Uiso   1.00
H91    H     0.45520   0.69510   0.69510   0.00000  Uiso   1.00
O92    O     0.36600   0.21810   0.21810   0.00000  Uiso   1.00
C93    C     0.47310   0.21710   0.21710   0.00000  Uiso   1.00
H94    H     0.45520   0.19510   0.19510   0.00000  Uiso   1.00
O95    O     0.86600   0.28190   0.78190   0.00000  Uiso   1.00
C96    C     0.97310   0.28290   0.78290   0.00000  Uiso   1.00
H97    H     0.95520   0.30490   0.80490   0.00000  Uiso   1.00
O98    O     0.36600   0.28190   0.28190   0.00000  Uiso   1.00
C99    C     0.47310   0.28290   0.28290   0.00000  Uiso   1.00
H100   H     0.45520   0.30490   0.30490   0.00000  Uiso   1.00
O101   O     0.21810   0.13400   0.28190   0.00000  Uiso   1.00
C102   C     0.21710   0.02690   0.28290   0.00000  Uiso   1.00
H103   H     0.19510   0.04480   0.30490   0.00000  Uiso   1.00
O104   O     0.21810   0.63400   0.78190   0.00000  Uiso   1.00
C105   C     0.21710   0.52690   0.78290   0.00000  Uiso   1.00
H106   H     0.19510   0.54480   0.80490   0.00000  Uiso   1.00
O107   O     0.78190   0.13400   0.71810   0.00000  Uiso   1.00
C108   C     0.78290   0.02690   0.71710   0.00000  Uiso   1.00
H109   H     0.80490   0.04480   0.69510   0.00000  Uiso   1.00
O110   O     0.78190   0.63400   0.21810   0.00000  Uiso   1.00
C111   C     0.78290   0.52690   0.21710   0.00000  Uiso   1.00
H112   H     0.80490   0.54480   0.19510   0.00000  Uiso   1.00
O113   O     0.28190   0.13400   0.21810   0.00000  Uiso   1.00
C114   C     0.28290   0.02690   0.21710   0.00000  Uiso   1.00
H115   H     0.30490   0.04480   0.19510   0.00000  Uiso   1.00
O116   O     0.21810   0.86600   0.71810   0.00000  Uiso   1.00
C117   C     0.21710   0.97310   0.71710   0.00000  Uiso   1.00
H118   H     0.19510   0.95520   0.69510   0.00000  Uiso   1.00
O119   O     0.21810   0.36600   0.21810   0.00000  Uiso   1.00
C120   C     0.21710   0.47310   0.21710   0.00000  Uiso   1.00
H121   H     0.19510   0.45520   0.19510   0.00000  Uiso   1.00
O122   O     0.78190   0.86600   0.28190   0.00000  Uiso   1.00
C123   C     0.78290   0.97310   0.28290   0.00000  Uiso   1.00
H124   H     0.80490   0.95520   0.30490   0.00000  Uiso   1.00
O125   O     0.78190   0.36600   0.78190   0.00000  Uiso   1.00
C126   C     0.78290   0.47310   0.78290   0.00000  Uiso   1.00
H127   H     0.80490   0.45520   0.80490   0.00000  Uiso   1.00
O128   O     0.28190   0.36600   0.28190   0.00000  Uiso   1.00
C129   C     0.28290   0.47310   0.28290   0.00000  Uiso   1.00
H130   H     0.30490   0.45520   0.30490   0.00000  Uiso   1.00
O131   O     0.21810   0.28190   0.86600   0.00000  Uiso   1.00
C132   C     0.21710   0.28290   0.97310   0.00000  Uiso   1.00
H133   H     0.19510   0.30490   0.95520   0.00000  Uiso   1.00
O134   O     0.21810   0.78190   0.36600   0.00000  Uiso   1.00
C135   C     0.21710   0.78290   0.47310   0.00000  Uiso   1.00
H136   H     0.19510   0.80490   0.45520   0.00000  Uiso   1.00
O137   O     0.78190   0.71810   0.86600   0.00000  Uiso   1.00
C138   C     0.78290   0.71710   0.97310   0.00000  Uiso   1.00
H139   H     0.80490   0.69510   0.95520   0.00000  Uiso   1.00
O140   O     0.78190   0.21810   0.36600   0.00000  Uiso   1.00
C141   C     0.78290   0.21710   0.47310   0.00000  Uiso   1.00
H142   H     0.80490   0.19510   0.45520   0.00000  Uiso   1.00
O143   O     0.28190   0.21810   0.86600   0.00000  Uiso   1.00
C144   C     0.28290   0.21710   0.97310   0.00000  Uiso   1.00
H145   H     0.30490   0.19510   0.95520   0.00000  Uiso   1.00
O146   O     0.21810   0.71810   0.13400   0.00000  Uiso   1.00
C147   C     0.21710   0.71710   0.02690   0.00000  Uiso   1.00
H148   H     0.19510   0.69510   0.04480   0.00000  Uiso   1.00
O149   O     0.21810   0.21810   0.63400   0.00000  Uiso   1.00
C150   C     0.21710   0.21710   0.52690   0.00000  Uiso   1.00
H151   H     0.19510   0.19510   0.54480   0.00000  Uiso   1.00
O152   O     0.78190   0.28190   0.13400   0.00000  Uiso   1.00
C153   C     0.78290   0.28290   0.02690   0.00000  Uiso   1.00
H154   H     0.80490   0.30490   0.04480   0.00000  Uiso   1.00
O155   O     0.78190   0.78190   0.63400   0.00000  Uiso   1.00
C156   C     0.78290   0.78290   0.52690   0.00000  Uiso   1.00
H157   H     0.80490   0.80490   0.54480   0.00000  Uiso   1.00
O158   O     0.28190   0.28190   0.63400   0.00000  Uiso   1.00
C159   C     0.28290   0.28290   0.52690   0.00000  Uiso   1.00
H160   H     0.30490   0.30490   0.54480   0.00000  Uiso   1.00
O161   O     0.28190   0.13400   0.78190   0.00000  Uiso   1.00
C162   C     0.28290   0.02690   0.78290   0.00000  Uiso   1.00
H163   H     0.30490   0.04480   0.80490   0.00000  Uiso   1.00
O164   O     0.28190   0.63400   0.28190   0.00000  Uiso   1.00
C165   C     0.28290   0.52690   0.28290   0.00000  Uiso   1.00
H166   H     0.30490   0.54480   0.30490   0.00000  Uiso   1.00
O167   O     0.71810   0.13400   0.21810   0.00000  Uiso   1.00
C168   C     0.71710   0.02690   0.21710   0.00000  Uiso   1.00
H169   H     0.69510   0.04480   0.19510   0.00000  Uiso   1.00
O170   O     0.71810   0.63400   0.71810   0.00000  Uiso   1.00
C171   C     0.71710   0.52690   0.71710   0.00000  Uiso   1.00
H172   H     0.69510   0.54480   0.69510   0.00000  Uiso   1.00
O173   O     0.21810   0.63400   0.21810   0.00000  Uiso   1.00
C174   C     0.21710   0.52690   0.21710   0.00000  Uiso   1.00
H175   H     0.19510   0.54480   0.19510   0.00000  Uiso   1.00
O176   O     0.71810   0.86600   0.78190   0.00000  Uiso   1.00
C177   C     0.71710   0.97310   0.78290   0.00000  Uiso   1.00
H178   H     0.69510   0.95520   0.80490   0.00000  Uiso   1.00
O179   O     0.71810   0.36600   0.28190   0.00000  Uiso   1.00
C180   C     0.71710   0.47310   0.28290   0.00000  Uiso   1.00
H181   H     0.69510   0.45520   0.30490   0.00000  Uiso   1.00
O182   O     0.21810   0.86600   0.28190   0.00000  Uiso   1.00
C183   C     0.21710   0.97310   0.28290   0.00000  Uiso   1.00
H184   H     0.19510   0.95520   0.30490   0.00000  Uiso   1.00
O185   O     0.28190   0.86600   0.21810   0.00000  Uiso   1.00
C186   C     0.28290   0.97310   0.21710   0.00000  Uiso   1.00
H187   H     0.30490   0.95520   0.19510   0.00000  Uiso   1.00
O188   O     0.28190   0.36600   0.71810   0.00000  Uiso   1.00
C189   C     0.28290   0.47310   0.71710   0.00000  Uiso   1.00
H190   H     0.30490   0.45520   0.69510   0.00000  Uiso   1.00
O191   O     0.13400   0.21810   0.71810   0.00000  Uiso   1.00
C192   C     0.02690   0.21710   0.71710   0.00000  Uiso   1.00
H193   H     0.04480   0.19510   0.69510   0.00000  Uiso   1.00
O194   O     0.63400   0.21810   0.21810   0.00000  Uiso   1.00
C195   C     0.52690   0.21710   0.21710   0.00000  Uiso   1.00
H196   H     0.54480   0.19510   0.19510   0.00000  Uiso   1.00
O197   O     0.13400   0.78190   0.28190   0.00000  Uiso   1.00
C198   C     0.02690   0.78290   0.28290   0.00000  Uiso   1.00
H199   H     0.04480   0.80490   0.30490   0.00000  Uiso   1.00
O200   O     0.63400   0.78190   0.78190   0.00000  Uiso   1.00
C201   C     0.52690   0.78290   0.78290   0.00000  Uiso   1.00
H202   H     0.54480   0.80490   0.80490   0.00000  Uiso   1.00
O203   O     0.63400   0.28190   0.28190   0.00000  Uiso   1.00
C204   C     0.52690   0.28290   0.28290   0.00000  Uiso   1.00
H205   H     0.54480   0.30490   0.30490   0.00000  Uiso   1.00
O206   O     0.86600   0.21810   0.28190   0.00000  Uiso   1.00
C207   C     0.97310   0.21710   0.28290   0.00000  Uiso   1.00
H208   H     0.95520   0.19510   0.30490   0.00000  Uiso   1.00
O209   O     0.36600   0.21810   0.78190   0.00000  Uiso   1.00
C210   C     0.47310   0.21710   0.78290   0.00000  Uiso   1.00
H211   H     0.45520   0.19510   0.80490   0.00000  Uiso   1.00
O212   O     0.86600   0.78190   0.71810   0.00000  Uiso   1.00
C213   C     0.97310   0.78290   0.71710   0.00000  Uiso   1.00
H214   H     0.95520   0.80490   0.69510   0.00000  Uiso   1.00
O215   O     0.86600   0.28190   0.21810   0.00000  Uiso   1.00
C216   C     0.97310   0.28290   0.21710   0.00000  Uiso   1.00
H217   H     0.95520   0.30490   0.19510   0.00000  Uiso   1.00
O218   O     0.36600   0.78190   0.21810   0.00000  Uiso   1.00
C219   C     0.47310   0.78290   0.21710   0.00000  Uiso   1.00
H220   H     0.45520   0.80490   0.19510   0.00000  Uiso   1.00
O221   O     0.71810   0.78190   0.86600   0.00000  Uiso   1.00
C222   C     0.71710   0.78290   0.97310   0.00000  Uiso   1.00
H223   H     0.69510   0.80490   0.95520   0.00000  Uiso   1.00
O224   O     0.71810   0.28190   0.36600   0.00000  Uiso   1.00
C225   C     0.71710   0.28290   0.47310   0.00000  Uiso   1.00
H226   H     0.69510   0.30490   0.45520   0.00000  Uiso   1.00
O227   O     0.28190   0.71810   0.36600   0.00000  Uiso   1.00
C228   C     0.28290   0.71710   0.47310   0.00000  Uiso   1.00
H229   H     0.30490   0.69510   0.45520   0.00000  Uiso   1.00
O230   O     0.28190   0.78190   0.13400   0.00000  Uiso   1.00
C231   C     0.28290   0.78290   0.02690   0.00000  Uiso   1.00
H232   H     0.30490   0.80490   0.04480   0.00000  Uiso   1.00
O233   O     0.71810   0.21810   0.13400   0.00000  Uiso   1.00
C234   C     0.71710   0.21710   0.02690   0.00000  Uiso   1.00
H235   H     0.69510   0.19510   0.04480   0.00000  Uiso   1.00
O236   O     0.71810   0.71810   0.63400   0.00000  Uiso   1.00
C237   C     0.71710   0.71710   0.52690   0.00000  Uiso   1.00
H238   H     0.69510   0.69510   0.54480   0.00000  Uiso   1.00
O239   O     0.86600   0.71810   0.78190   0.00000  Uiso   1.00
C240   C     0.97310   0.71710   0.78290   0.00000  Uiso   1.00
H241   H     0.95520   0.69510   0.80490   0.00000  Uiso   1.00
O242   O     0.36600   0.71810   0.28190   0.00000  Uiso   1.00
C243   C     0.47310   0.71710   0.28290   0.00000  Uiso   1.00
H244   H     0.45520   0.69510   0.30490   0.00000  Uiso   1.00
O245   O     0.36600   0.28190   0.71810   0.00000  Uiso   1.00
C246   C     0.47310   0.28290   0.71710   0.00000  Uiso   1.00
H247   H     0.45520   0.30490   0.69510   0.00000  Uiso   1.00
O248   O     0.13400   0.28190   0.78190   0.00000  Uiso   1.00
C249   C     0.02690   0.28290   0.78290   0.00000  Uiso   1.00
H250   H     0.04480   0.30490   0.80490   0.00000  Uiso   1.00
O251   O     0.13400   0.71810   0.21810   0.00000  Uiso   1.00
C252   C     0.02690   0.71710   0.21710   0.00000  Uiso   1.00
H253   H     0.04480   0.69510   0.19510   0.00000  Uiso   1.00
O254   O     0.63400   0.71810   0.71810   0.00000  Uiso   1.00
C255   C     0.52690   0.71710   0.71710   0.00000  Uiso   1.00
H256   H     0.54480   0.69510   0.69510   0.00000  Uiso   1.00
O257   O     0.78190   0.86600   0.71810   0.00000  Uiso   1.00
C258   C     0.78290   0.97310   0.71710   0.00000  Uiso   1.00
H259   H     0.80490   0.95520   0.69510   0.00000  Uiso   1.00
O260   O     0.78190   0.36600   0.21810   0.00000  Uiso   1.00
C261   C     0.78290   0.47310   0.21710   0.00000  Uiso   1.00
H262   H     0.80490   0.45520   0.19510   0.00000  Uiso   1.00
O263   O     0.21810   0.36600   0.78190   0.00000  Uiso   1.00
C264   C     0.21710   0.47310   0.78290   0.00000  Uiso   1.00
H265   H     0.19510   0.45520   0.80490   0.00000  Uiso   1.00
O266   O     0.78190   0.13400   0.28190   0.00000  Uiso   1.00
C267   C     0.78290   0.02690   0.28290   0.00000  Uiso   1.00
H268   H     0.80490   0.04480   0.30490   0.00000  Uiso   1.00
O269   O     0.78190   0.63400   0.78190   0.00000  Uiso   1.00
C270   C     0.78290   0.52690   0.78290   0.00000  Uiso   1.00
H271   H     0.80490   0.54480   0.80490   0.00000  Uiso   1.00
O272   O     0.21810   0.13400   0.71810   0.00000  Uiso   1.00
C273   C     0.21710   0.02690   0.71710   0.00000  Uiso   1.00
H274   H     0.19510   0.04480   0.69510   0.00000  Uiso   1.00
O275   O     0.78190   0.71810   0.13400   0.00000  Uiso   1.00
C276   C     0.78290   0.71710   0.02690   0.00000  Uiso   1.00
H277   H     0.80490   0.69510   0.04480   0.00000  Uiso   1.00
O278   O     0.78190   0.21810   0.63400   0.00000  Uiso   1.00
C279   C     0.78290   0.21710   0.52690   0.00000  Uiso   1.00
H280   H     0.80490   0.19510   0.54480   0.00000  Uiso   1.00
O281   O     0.21810   0.78190   0.63400   0.00000  Uiso   1.00
C282   C     0.21710   0.78290   0.52690   0.00000  Uiso   1.00
H283   H     0.19510   0.80490   0.54480   0.00000  Uiso   1.00
O284   O     0.78190   0.28190   0.86600   0.00000  Uiso   1.00
C285   C     0.78290   0.28290   0.97310   0.00000  Uiso   1.00
H286   H     0.80490   0.30490   0.95520   0.00000  Uiso   1.00
O287   O     0.78190   0.78190   0.36600   0.00000  Uiso   1.00
C288   C     0.78290   0.78290   0.47310   0.00000  Uiso   1.00
H289   H     0.80490   0.80490   0.45520   0.00000  Uiso   1.00
O290   O     0.21810   0.71810   0.86600   0.00000  Uiso   1.00
C291   C     0.21710   0.71710   0.97310   0.00000  Uiso   1.00
H292   H     0.19510   0.69510   0.95520   0.00000  Uiso   1.00
O293   O     0.71810   0.86600   0.21810   0.00000  Uiso   1.00
C294   C     0.71710   0.97310   0.21710   0.00000  Uiso   1.00
H295   H     0.69510   0.95520   0.19510   0.00000  Uiso   1.00
O296   O     0.71810   0.36600   0.71810   0.00000  Uiso   1.00
C297   C     0.71710   0.47310   0.71710   0.00000  Uiso   1.00
H298   H     0.69510   0.45520   0.69510   0.00000  Uiso   1.00
O299   O     0.28190   0.86600   0.78190   0.00000  Uiso   1.00
C300   C     0.28290   0.97310   0.78290   0.00000  Uiso   1.00
H301   H     0.30490   0.95520   0.80490   0.00000  Uiso   1.00
O302   O     0.28190   0.63400   0.71810   0.00000  Uiso   1.00
C303   C     0.28290   0.52690   0.71710   0.00000  Uiso   1.00
H304   H     0.30490   0.54480   0.69510   0.00000  Uiso   1.00
O305   O     0.71810   0.13400   0.78190   0.00000  Uiso   1.00
C306   C     0.71710   0.02690   0.78290   0.00000  Uiso   1.00
H307   H     0.69510   0.04480   0.80490   0.00000  Uiso   1.00
O308   O     0.71810   0.63400   0.28190   0.00000  Uiso   1.00
C309   C     0.71710   0.52690   0.28290   0.00000  Uiso   1.00
H310   H     0.69510   0.54480   0.30490   0.00000  Uiso   1.00
O311   O     0.86600   0.78190   0.28190   0.00000  Uiso   1.00
C312   C     0.97310   0.78290   0.28290   0.00000  Uiso   1.00
H313   H     0.95520   0.80490   0.30490   0.00000  Uiso   1.00
O314   O     0.36600   0.78190   0.78190   0.00000  Uiso   1.00
C315   C     0.47310   0.78290   0.78290   0.00000  Uiso   1.00
H316   H     0.45520   0.80490   0.80490   0.00000  Uiso   1.00
O317   O     0.86600   0.21810   0.71810   0.00000  Uiso   1.00
C318   C     0.97310   0.21710   0.71710   0.00000  Uiso   1.00
H319   H     0.95520   0.19510   0.69510   0.00000  Uiso   1.00
O320   O     0.13400   0.78190   0.71810   0.00000  Uiso   1.00
C321   C     0.02690   0.78290   0.71710   0.00000  Uiso   1.00
H322   H     0.04480   0.80490   0.69510   0.00000  Uiso   1.00
O323   O     0.63400   0.78190   0.21810   0.00000  Uiso   1.00
C324   C     0.52690   0.78290   0.21710   0.00000  Uiso   1.00
H325   H     0.54480   0.80490   0.19510   0.00000  Uiso   1.00
O326   O     0.63400   0.21810   0.78190   0.00000  Uiso   1.00
C327   C     0.52690   0.21710   0.78290   0.00000  Uiso   1.00
H328   H     0.54480   0.19510   0.80490   0.00000  Uiso   1.00
C329   C     0.25000   0.25000   0.11130   0.00000  Uiso   1.00
C330   C     0.25000   0.25000   0.05380   0.00000  Uiso   1.00
C331   C     0.25000   0.75000   0.61130   0.00000  Uiso   1.00
C332   C     0.25000   0.75000   0.55380   0.00000  Uiso   1.00
C333   C     0.75000   0.75000   0.11130   0.00000  Uiso   1.00
C334   C     0.75000   0.75000   0.05380   0.00000  Uiso   1.00
C335   C     0.75000   0.25000   0.61130   0.00000  Uiso   1.00
C336   C     0.75000   0.25000   0.55380   0.00000  Uiso   1.00
C337   C     0.75000   0.25000   0.88870   0.00000  Uiso   1.00
C338   C     0.75000   0.25000   0.94620   0.00000  Uiso   1.00
C339   C     0.75000   0.75000   0.38870   0.00000  Uiso   1.00
C340   C     0.75000   0.75000   0.44620   0.00000  Uiso   1.00
C341   C     0.25000   0.25000   0.38870   0.00000  Uiso   1.00
C342   C     0.25000   0.25000   0.44620   0.00000  Uiso   1.00
C343   C     0.25000   0.75000   0.88870   0.00000  Uiso   1.00
C344   C     0.25000   0.75000   0.94620   0.00000  Uiso   1.00
C345   C     0.11130   0.25000   0.25000   0.00000  Uiso   1.00
C346   C     0.05380   0.25000   0.25000   0.00000  Uiso   1.00
C347   C     0.61130   0.25000   0.75000   0.00000  Uiso   1.00
C348   C     0.55380   0.25000   0.75000   0.00000  Uiso   1.00
C349   C     0.11130   0.75000   0.75000   0.00000  Uiso   1.00
C350   C     0.05380   0.75000   0.75000   0.00000  Uiso   1.00
C351   C     0.61130   0.75000   0.25000   0.00000  Uiso   1.00
C352   C     0.55380   0.75000   0.25000   0.00000  Uiso   1.00
C353   C     0.88870   0.75000   0.25000   0.00000  Uiso   1.00
C354   C     0.94620   0.75000   0.25000   0.00000  Uiso   1.00
C355   C     0.38870   0.75000   0.75000   0.00000  Uiso   1.00
C356   C     0.44620   0.75000   0.75000   0.00000  Uiso   1.00
C357   C     0.38870   0.25000   0.25000   0.00000  Uiso   1.00
C358   C     0.44620   0.25000   0.25000   0.00000  Uiso   1.00
C359   C     0.88870   0.25000   0.75000   0.00000  Uiso   1.00
C360   C     0.94620   0.25000   0.75000   0.00000  Uiso   1.00
C361   C     0.25000   0.11130   0.25000   0.00000  Uiso   1.00
C362   C     0.25000   0.05380   0.25000   0.00000  Uiso   1.00
C363   C     0.25000   0.61130   0.75000   0.00000  Uiso   1.00
C364   C     0.25000   0.55380   0.75000   0.00000  Uiso   1.00
C365   C     0.75000   0.11130   0.75000   0.00000  Uiso   1.00
C366   C     0.75000   0.05380   0.75000   0.00000  Uiso   1.00
C367   C     0.75000   0.61130   0.25000   0.00000  Uiso   1.00
C368   C     0.75000   0.55380   0.25000   0.00000  Uiso   1.00
C369   C     0.25000   0.88870   0.75000   0.00000  Uiso   1.00
C370   C     0.25000   0.94620   0.75000   0.00000  Uiso   1.00
C371   C     0.25000   0.38870   0.25000   0.00000  Uiso   1.00
C372   C     0.25000   0.44620   0.25000   0.00000  Uiso   1.00
C373   C     0.75000   0.88870   0.25000   0.00000  Uiso   1.00
C374   C     0.75000   0.94620   0.25000   0.00000  Uiso   1.00
C375   C     0.75000   0.38870   0.75000   0.00000  Uiso   1.00
C376   C     0.75000   0.44620   0.75000   0.00000  Uiso   1.00
C377   C     0.25000   0.25000   0.88870   0.00000  Uiso   1.00
C378   C     0.25000   0.25000   0.94620   0.00000  Uiso   1.00
C379   C     0.25000   0.75000   0.38870   0.00000  Uiso   1.00
C380   C     0.25000   0.75000   0.44620   0.00000  Uiso   1.00
C381   C     0.75000   0.75000   0.88870   0.00000  Uiso   1.00
C382   C     0.75000   0.75000   0.94620   0.00000  Uiso   1.00
C383   C     0.75000   0.25000   0.38870   0.00000  Uiso   1.00
C384   C     0.75000   0.25000   0.44620   0.00000  Uiso   1.00
C385   C     0.25000   0.75000   0.11130   0.00000  Uiso   1.00
C386   C     0.25000   0.75000   0.05380   0.00000  Uiso   1.00
C387   C     0.25000   0.25000   0.61130   0.00000  Uiso   1.00
C388   C     0.25000   0.25000   0.55380   0.00000  Uiso   1.00
C389   C     0.75000   0.25000   0.11130   0.00000  Uiso   1.00
C390   C     0.75000   0.25000   0.05380   0.00000  Uiso   1.00
C391   C     0.75000   0.75000   0.61130   0.00000  Uiso   1.00
C392   C     0.75000   0.75000   0.55380   0.00000  Uiso   1.00
C393   C     0.25000   0.11130   0.75000   0.00000  Uiso   1.00
C394   C     0.25000   0.05380   0.75000   0.00000  Uiso   1.00
C395   C     0.25000   0.61130   0.25000   0.00000  Uiso   1.00
C396   C     0.25000   0.55380   0.25000   0.00000  Uiso   1.00
C397   C     0.75000   0.11130   0.25000   0.00000  Uiso   1.00
C398   C     0.75000   0.05380   0.25000   0.00000  Uiso   1.00
C399   C     0.75000   0.61130   0.75000   0.00000  Uiso   1.00
C400   C     0.75000   0.55380   0.75000   0.00000  Uiso   1.00
C401   C     0.75000   0.88870   0.75000   0.00000  Uiso   1.00
C402   C     0.75000   0.94620   0.75000   0.00000  Uiso   1.00
C403   C     0.75000   0.38870   0.25000   0.00000  Uiso   1.00
C404   C     0.75000   0.44620   0.25000   0.00000  Uiso   1.00
C405   C     0.25000   0.88870   0.25000   0.00000  Uiso   1.00
C406   C     0.25000   0.94620   0.25000   0.00000  Uiso   1.00
C407   C     0.25000   0.38870   0.75000   0.00000  Uiso   1.00
C408   C     0.25000   0.44620   0.75000   0.00000  Uiso   1.00
C409   C     0.11130   0.25000   0.75000   0.00000  Uiso   1.00
C410   C     0.05380   0.25000   0.75000   0.00000  Uiso   1.00
C411   C     0.61130   0.25000   0.25000   0.00000  Uiso   1.00
C412   C     0.55380   0.25000   0.25000   0.00000  Uiso   1.00
C413   C     0.11130   0.75000   0.25000   0.00000  Uiso   1.00
C414   C     0.05380   0.75000   0.25000   0.00000  Uiso   1.00
C415   C     0.61130   0.75000   0.75000   0.00000  Uiso   1.00
C416   C     0.55380   0.75000   0.75000   0.00000  Uiso   1.00
C417   C     0.88870   0.25000   0.25000   0.00000  Uiso   1.00
C418   C     0.94620   0.25000   0.25000   0.00000  Uiso   1.00
C419   C     0.38870   0.25000   0.75000   0.00000  Uiso   1.00
C420   C     0.44620   0.25000   0.75000   0.00000  Uiso   1.00
C421   C     0.88870   0.75000   0.75000   0.00000  Uiso   1.00
C422   C     0.94620   0.75000   0.75000   0.00000  Uiso   1.00
C423   C     0.38870   0.75000   0.25000   0.00000  Uiso   1.00
C424   C     0.44620   0.75000   0.25000   0.00000  Uiso   1.00
loop_
_geom_bond_atom_site_label_1
_geom_bond_atom_site_label_2
_geom_bond_distance
_geom_bond_site_symmetry_2
_ccdc_geom_bond_type
Zn1    O33     1.942   .     S
Zn1    O41     1.922   .     S
Zn1    O113    1.922   .     S
Zn1    O92     1.922   .     S
Zn2    O36     1.942   .     S
Zn2    O44     1.922   .     S
Zn2    O302    1.922   .     S
Zn2    O89     1.922   .     S
Zn3    O34     1.942   .     S
Zn3    O47     1.922   .     S
Zn3    O293    1.922   .     S
Zn3    O323    1.922   .     S
Zn4    O35     1.942   .     S
Zn4    O50     1.922   .     S
Zn4    O296    1.922   .     S
Zn4    O74     1.922   .     S
Zn5    O33     1.942   .     S
Zn5    O71     1.922   .     S
Zn5    O53     1.922   .     S
Zn5    O119    1.922   .     S
Zn6    O35     1.942   .     S
Zn6    O56     1.922   .     S
Zn6    O305    1.922   .     S
Zn6    O326    1.922   .     S
Zn7    O34     1.942   .     S
Zn7    O59     1.922   .     S
Zn7    O308    1.922   .     S
Zn7    O83     1.922   .     S
Zn8    O33     1.942   .     S
Zn8    O101    1.922   .     S
Zn8    O80     1.922   .     S
Zn8    O62     1.922   .     S
Zn9    O36     1.942   .     S
Zn9    O65     1.922   .     S
Zn9    O299    1.922   .     S
Zn9    O314    1.922   .     S
Zn10   O33     1.942   .     S
Zn10   O68     1.922   .     S
Zn10   O128    1.922   .     S
Zn10   O98     1.922   .     S
Zn11   O36     1.942   .     S
Zn11   O77     1.922   .     S
Zn11   O290    1.922   .     S
Zn11   O104    1.922   .     S
Zn12   O34     1.942   .     S
Zn12   O86     1.922   .     S
Zn12   O275    1.922   .     S
Zn12   O110    1.922   .     S
Zn13   O35     1.942   .     S
Zn13   O95     1.922   .     S
Zn13   O284    1.922   .     S
Zn13   O125    1.922   .     S
Zn14   O35     1.942   .     S
Zn14   O107    1.922   .     S
Zn14   O317    1.922   .     S
Zn14   O278    1.922   .     S
Zn15   O36     1.942   .     S
Zn15   O116    1.922   .     S
Zn15   O320    1.922   .     S
Zn15   O281    1.922   .     S
Zn16   O34     1.942   .     S
Zn16   O122    1.922   .     S
Zn16   O311    1.922   .     S
Zn16   O287    1.922   .     S
Zn17   O37     1.942   .     S
Zn17   O131    1.922   .     S
Zn17   O248    1.922   .     S
Zn17   O263    1.922   .     S
Zn18   O38     1.942   .     S
Zn18   O137    1.922   .     S
Zn18   O239    1.922   .     S
Zn18   O269    1.922   .     S
Zn19   O39     1.942   .     S
Zn19   O206    1.922   .     S
Zn19   O266    1.922   .     S
Zn19   O140    1.922   .     S
Zn20   O37     1.942   .     S
Zn20   O161    1.922   .     S
Zn20   O143    1.922   .     S
Zn20   O209    1.922   .     S
Zn21   O40     1.942   .     S
Zn21   O146    1.922   .     S
Zn21   O251    1.922   .     S
Zn21   O173    1.922   .     S
Zn22   O39     1.942   .     S
Zn22   O152    1.922   .     S
Zn22   O215    1.922   .     S
Zn22   O260    1.922   .     S
Zn23   O37     1.942   .     S
Zn23   O188    1.922   .     S
Zn23   O158    1.922   .     S
Zn23   O245    1.922   .     S
Zn24   O40     1.942   .     S
Zn24   O164    1.922   .     S
Zn24   O227    1.922   .     S
Zn24   O242    1.922   .     S
Zn25   O39     1.942   .     S
Zn25   O167    1.922   .     S
Zn25   O233    1.922   .     S
Zn25   O194    1.922   .     S
Zn26   O38     1.942   .     S
Zn26   O170    1.922   .     S
Zn26   O236    1.922   .     S
Zn26   O254    1.922   .     S
Zn27   O38     1.942   .     S
Zn27   O176    1.922   .     S
Zn27   O221    1.922   .     S
Zn27   O200    1.922   .     S
Zn28   O39     1.942   .     S
Zn28   O179    1.922   .     S
Zn28   O224    1.922   .     S
Zn28   O203    1.922   .     S
Zn29   O40     1.942   .     S
Zn29   O197    1.922   .     S
Zn29   O182    1.922   .     S
Zn29   O134    1.922   .     S
Zn30   O40     1.942   .     S
Zn30   O185    1.922   .     S
Zn30   O230    1.922   .     S
Zn30   O218    1.922   .     S
Zn31   O37     1.942   .     S
Zn31   O191    1.922   .     S
Zn31   O272    1.922   .     S
Zn31   O149    1.922   .     S
Zn32   O38     1.942   .     S
Zn32   O212    1.922   .     S
Zn32   O257    1.922   .     S
Zn32   O155    1.922   .     S
O41    C329    1.305   .     A
C42    H43     0.927   .     S
C42    C330    1.388   .     A
C42    C144    1.390   1_554 A
O44    C331    1.305   .     A
C45    H46     0.927   .     S
C45    C332    1.388   .     A
C45    C228    1.390   .     A
O47    C333    1.305   .     A
C48    H49     0.927   .     S
C48    C334    1.388   .     A
C48    C222    1.390   1_554 A
O50    C335    1.305   .     A
C51    H52     0.927   .     S
C51    C336    1.388   .     A
C51    C225    1.390   .     A
O53    C329    1.305   .     A
C54    H55     0.927   .     S
C54    C330    1.388   .     A
C54    C132    1.390   1_554 A
O56    C337    1.305   .     A
C57    H58     0.927   .     S
C57    C338    1.388   .     A
C57    C234    1.390   1_556 A
O59    C339    1.305   .     A
C60    H61     0.927   .     S
C60    C340    1.388   .     A
C60    C237    1.390   .     A
O62    C341    1.305   .     A
C63    H64     0.927   .     S
C63    C342    1.388   .     A
C63    C150    1.390   .     A
O65    C343    1.305   .     A
C66    H67     0.927   .     S
C66    C344    1.388   .     A
C66    C231    1.390   1_556 A
O68    C341    1.305   .     A
C69    H70     0.927   .     S
C69    C342    1.388   .     A
C69    C159    1.390   .     A
O71    C345    1.305   .     A
C72    H73     0.927   .     S
C72    C346    1.388   .     A
C72    C216    1.390   1_455 A
O74    C347    1.305   .     A
C75    H76     0.927   .     S
C75    C348    1.388   .     A
C75    C246    1.390   .     A
O77    C349    1.305   .     A
C78    H79     0.927   .     S
C78    C350    1.388   .     A
C78    C240    1.390   1_455 A
O80    C345    1.305   .     A
C81    H82     0.927   .     S
C81    C346    1.388   .     A
C81    C207    1.390   1_455 A
O83    C351    1.305   .     A
C84    H85     0.927   .     S
C84    C352    1.388   .     A
C84    C243    1.390   .     A
O86    C353    1.305   .     A
C87    H88     0.927   .     S
C87    C354    1.388   .     A
C87    C252    1.390   1_655 A
O89    C355    1.305   .     A
C90    H91     0.927   .     S
C90    C356    1.388   .     A
C90    C255    1.390   .     A
O92    C357    1.305   .     A
C93    H94     0.927   .     S
C93    C358    1.388   .     A
C93    C195    1.390   .     A
O95    C359    1.305   .     A
C96    H97     0.927   .     S
C96    C360    1.388   .     A
C96    C249    1.390   1_655 A
O98    C357    1.305   .     A
C99    H100    0.927   .     S
C99    C358    1.388   .     A
C99    C204    1.390   .     A
O101   C361    1.305   .     A
C102   H103    0.927   .     S
C102   C362    1.388   .     A
C102   C183    1.390   1_545 A
O104   C363    1.305   .     A
C105   H106    0.927   .     S
C105   C364    1.388   .     A
C105   C264    1.390   .     A
O107   C365    1.305   .     A
C108   H109    0.927   .     S
C108   C366    1.388   .     A
C108   C258    1.390   1_545 A
O110   C367    1.305   .     A
C111   H112    0.927   .     S
C111   C368    1.388   .     A
C111   C261    1.390   .     A
O113   C361    1.305   .     A
C114   H115    0.927   .     S
C114   C362    1.388   .     A
C114   C186    1.390   1_545 A
O116   C369    1.305   .     A
C117   H118    0.927   .     S
C117   C370    1.388   .     A
C117   C273    1.390   1_565 A
O119   C371    1.305   .     A
C120   H121    0.927   .     S
C120   C372    1.388   .     A
C120   C174    1.390   .     A
O122   C373    1.305   .     A
C123   H124    0.927   .     S
C123   C374    1.388   .     A
C123   C267    1.390   1_565 A
O125   C375    1.305   .     A
C126   H127    0.927   .     S
C126   C376    1.388   .     A
C126   C270    1.390   .     A
O128   C371    1.305   .     A
C129   H130    0.927   .     S
C129   C372    1.388   .     A
C129   C165    1.390   .     A
O131   C377    1.305   .     A
C132   H133    0.927   .     S
C132   C378    1.388   .     A
C132   C54     1.390   1_556 A
O134   C379    1.305   .     A
C135   H136    0.927   .     S
C135   C380    1.388   .     A
C135   C282    1.390   .     A
O137   C381    1.305   .     A
C138   H139    0.927   .     S
C138   C382    1.388   .     A
C138   C276    1.390   1_556 A
O140   C383    1.305   .     A
C141   H142    0.927   .     S
C141   C384    1.388   .     A
C141   C279    1.390   .     A
O143   C377    1.305   .     A
C144   H145    0.927   .     S
C144   C378    1.388   .     A
C144   C42     1.390   1_556 A
O146   C385    1.305   .     A
C147   H148    0.927   .     S
C147   C386    1.388   .     A
C147   C291    1.390   1_554 A
O149   C387    1.305   .     A
C150   H151    0.927   .     S
C150   C388    1.388   .     A
O152   C389    1.305   .     A
C153   H154    0.927   .     S
C153   C390    1.388   .     A
C153   C285    1.390   1_554 A
O155   C391    1.305   .     A
C156   H157    0.927   .     S
C156   C392    1.388   .     A
C156   C288    1.390   .     A
O158   C387    1.305   .     A
C159   H160    0.927   .     S
C159   C388    1.388   .     A
O161   C393    1.305   .     A
C162   H163    0.927   .     S
C162   C394    1.388   .     A
C162   C300    1.390   1_545 A
O164   C395    1.305   .     A
C165   H166    0.927   .     S
C165   C396    1.388   .     A
O167   C397    1.305   .     A
C168   H169    0.927   .     S
C168   C398    1.388   .     A
C168   C294    1.390   1_545 A
O170   C399    1.305   .     A
C171   H172    0.927   .     S
C171   C400    1.388   .     A
C171   C297    1.390   .     A
O173   C395    1.305   .     A
C174   H175    0.927   .     S
C174   C396    1.388   .     A
O176   C401    1.305   .     A
C177   H178    0.927   .     S
C177   C402    1.388   .     A
C177   C306    1.390   1_565 A
O179   C403    1.305   .     A
C180   H181    0.927   .     S
C180   C404    1.388   .     A
C180   C309    1.390   .     A
O182   C405    1.305   .     A
C183   H184    0.927   .     S
C183   C406    1.388   .     A
C183   C102    1.390   1_565 A
O185   C405    1.305   .     A
C186   H187    0.927   .     S
C186   C406    1.388   .     A
C186   C114    1.390   1_565 A
O188   C407    1.305   .     A
C189   H190    0.927   .     S
C189   C408    1.388   .     A
C189   C303    1.390   .     A
O191   C409    1.305   .     A
C192   H193    0.927   .     S
C192   C410    1.388   .     A
C192   C318    1.390   1_455 A
O194   C411    1.305   .     A
C195   H196    0.927   .     S
C195   C412    1.388   .     A
O197   C413    1.305   .     A
C198   H199    0.927   .     S
C198   C414    1.388   .     A
C198   C312    1.390   1_455 A
O200   C415    1.305   .     A
C201   H202    0.927   .     S
C201   C416    1.388   .     A
C201   C315    1.390   .     A
O203   C411    1.305   .     A
C204   H205    0.927   .     S
C204   C412    1.388   .     A
O206   C417    1.305   .     A
C207   H208    0.927   .     S
C207   C418    1.388   .     A
C207   C81     1.390   1_655 A
O209   C419    1.305   .     A
C210   H211    0.927   .     S
C210   C420    1.388   .     A
C210   C327    1.390   .     A
O212   C421    1.305   .     A
C213   H214    0.927   .     S
C213   C422    1.388   .     A
C213   C321    1.390   1_655 A
O215   C417    1.305   .     A
C216   H217    0.927   .     S
C216   C418    1.388   .     A
C216   C72     1.390   1_655 A
O218   C423    1.305   .     A
C219   H220    0.927   .     S
C219   C424    1.388   .     A
C219   C324    1.390   .     A
O221   C381    1.305   .     A
C222   H223    0.927   .     S
C222   C382    1.388   .     A
C222   C48     1.390   1_556 A
O224   C383    1.305   .     A
C225   H226    0.927   .     S
C225   C384    1.388   .     A
O227   C379    1.305   .     A
C228   H229    0.927   .     S
C228   C380    1.388   .     A
O230   C385    1.305   .     A
C231   H232    0.927   .     S
C231   C386    1.388   .     A
C231   C66     1.390   1_554 A
O233   C389    1.305   .     A
C234   H235    0.927   .     S
C234   C390    1.388   .     A
C234   C57     1.390   1_554 A
O236   C391    1.305   .     A
C237   H238    0.927   .     S
C237   C392    1.388   .     A
O239   C421    1.305   .     A
C240   H241    0.927   .     S
C240   C422    1.388   .     A
C240   C78     1.390   1_655 A
O242   C423    1.305   .     A
C243   H244    0.927   .     S
C243   C424    1.388   .     A
O245   C419    1.305   .     A
C246   H247    0.927   .     S
C246   C420    1.388   .     A
O248   C409    1.305   .     A
C249   H250    0.927   .     S
C249   C410    1.388   .     A
C249   C96     1.390   1_455 A
O251   C413    1.305   .     A
C252   H253    0.927   .     S
C252   C414    1.388   .     A
C252   C87     1.390   1_455 A
O254   C415    1.305   .     A
C255   H256    0.927   .     S
C255   C416    1.388   .     A
O257   C401    1.305   .     A
C258   H259    0.927   .     S
C258   C402    1.388   .     A
C258   C108    1.390   1_565 A
O260   C403    1.305   .     A
C261   H262    0.927   .     S
C261   C404    1.388   .     A
O263   C407    1.305   .     A
C264   H265    0.927   .     S
C264   C408    1.388   .     A
O266   C397    1.305   .     A
C267   H268    0.927   .     S
C267   C398    1.388   .     A
C267   C123    1.390   1_545 A
O269   C399    1.305   .     A
C270   H271    0.927   .     S
C270   C400    1.388   .     A
O272   C393    1.305   .     A
C273   H274    0.927   .     S
C273   C394    1.388   .     A
C273   C117    1.390   1_545 A
O275   C333    1.305   .     A
C276   H277    0.927   .     S
C276   C334    1.388   .     A
C276   C138    1.390   1_554 A
O278   C335    1.305   .     A
C279   H280    0.927   .     S
C279   C336    1.388   .     A
O281   C331    1.305   .     A
C282   H283    0.927   .     S
C282   C332    1.388   .     A
O284   C337    1.305   .     A
C285   H286    0.927   .     S
C285   C338    1.388   .     A
C285   C153    1.390   1_556 A
O287   C339    1.305   .     A
C288   H289    0.927   .     S
C288   C340    1.388   .     A
O290   C343    1.305   .     A
C291   H292    0.927   .     S
C291   C344    1.388   .     A
C291   C147    1.390   1_556 A
O293   C373    1.305   .     A
C294   H295    0.927   .     S
C294   C374    1.388   .     A
C294   C168    1.390   1_565 A
O296   C375    1.305   .     A
C297   H298    0.927   .     S
C297   C376    1.388   .     A
O299   C369    1.305   .     A
C300   H301    0.927   .     S
C300   C370    1.388   .     A
C300   C162    1.390   1_565 A
O302   C363    1.305   .     A
C303   H304    0.927   .     S
C303   C364    1.388   .     A
O305   C365    1.305   .     A
C306   H307    0.927   .     S
C306   C366    1.388   .     A
C306   C177    1.390   1_545 A
O308   C367    1.305   .     A
C309   H310    0.927   .     S
C309   C368    1.388   .     A
O311   C353    1.305   .     A
C312   H313    0.927   .     S
C312   C354    1.388   .     A
C312   C198    1.390   1_655 A
O314   C355    1.305   .     A
C315   H316    0.927   .     S
C315   C356    1.388   .     A
O317   C359    1.305   .     A
C318   H319    0.927   .     S
C318   C360    1.388   .     A
C318   C192    1.390   1_655 A
O320   C349    1.305   .     A
C321   H322    0.927   .     S
C321   C350    1.388   .     A
C321   C213    1.390   1_455 A
O323   C351    1.305   .     A
C324   H325    0.927   .     S
C324   C352    1.388   .     A
O326   C347    1.305   .     A
C327   H328    0.927   .     S
C327   C348    1.388   .     A
C329   C330    1.485   .     S
C331   C332    1.485   .     S
C333   C334    1.485   .     S
C335   C336    1.485   .     S
C337   C338    1.485   .     S
C339   C340    1.485   .     S
C341   C342    1.485   .     S
C343   C344    1.485   .     S
C345   C346    1.485   .     S
C347   C348    1.485   .     S
C349   C350    1.485   .     S
C351   C352    1.485   .     S
C353   C354    1.485   .     S
C355   C356    1.485   .     S
C357   C358    1.485   .     S
C359   C360    1.485   .     S
C361   C362    1.485   .     S
C363   C364    1.485   .     S
C365   C366    1.485   .     S
C367   C368    1.485   .     S
C369   C370    1.485   .     S
C371   C372    1.485   .     S
C373   C374    1.485   .     S
C375   C376    1.485   .     S
C377   C378    1.485   .     S
C379   C380    1.485   .     S
C381   C382    1.485   .     S
C383   C384    1.485   .     S
C385   C386    1.485   .     S
C387   C388    1.485   .     S
C389   C390    1.485   .     S
C391   C392    1.485   .     S
C393   C394    1.485   .     S
C395   C396    1.485   .     S
C397   C398    1.485   .     S
C399   C400    1.485   .     S
C401   C402    1.485   .     S
C403   C404    1.485   .     S
C405   C406    1.485   .     S
C407   C408    1.485   .     S
C409   C410    1.485   .     S
C411   C412    1.485   .     S
C413   C414    1.485   .     S
C415   C416    1.485   .     S
C417   C418    1.485   .     S
C419   C420    1.485   .     S
C421   C422    1.485   .     S
C423   C424    1.485   .     S
