data_test.csq_sym_5_mc_2_sym_8_mc_9_L_12
_audit_creation_date              2017-01-31
_audit_creation_method            'Materials Studio'
_symmetry_space_group_name_H-M    'P1'
_symmetry_Int_Tables_number       1
_symmetry_cell_setting            triclinic
loop_
_symmetry_equiv_pos_as_xyz
  x,y,z
_cell_length_a                    42.0406
_cell_length_b                    42.0405
_cell_length_c                    29.7226
_cell_angle_alpha                 90.0000
_cell_angle_beta                  90.0000
_cell_angle_gamma                 120.0000
loop_
_atom_site_label
_atom_site_type_symbol
_atom_site_fract_x
_atom_site_fract_y
_atom_site_fract_z
_atom_site_U_iso_or_equiv
_atom_site_adp_type
_atom_site_occupancy
O1     O     0.26736   0.46946   0.04616   0.00000  Uiso   1.00
O2     O     0.20210   0.46946   0.45384   0.00000  Uiso   1.00
O3     O     0.26736   0.46946   0.45384   0.00000  Uiso   1.00
O4     O     0.20209   0.46946   0.04616   0.00000  Uiso   1.00
O5     O     0.23263   0.53054   0.04616   0.00000  Uiso   1.00
O6     O     0.29790   0.53054   0.45384   0.00000  Uiso   1.00
O7     O     0.23264   0.53054   0.45384   0.00000  Uiso   1.00
O8     O     0.29790   0.53054   0.04616   0.00000  Uiso   1.00
Cu9    Cu    0.23194   0.46389  -0.00000   0.00000  Uiso   1.00
Cu10   Cu    0.26806   0.53611   0.00000   0.00000  Uiso   1.00
C11    C     0.29226   0.50000   0.05977   0.00000  Uiso   1.00
C12    C     0.20774   0.50000   0.44023   0.00000  Uiso   1.00
C13    C     0.29225   0.50000   0.44023   0.00000  Uiso   1.00
C14    C     0.20774   0.50000   0.05977   0.00000  Uiso   1.00
O15    O     0.20517   0.41034   0.49999   0.00000  Uiso   1.00
O16    O     0.29483   0.58966   0.00001   0.00000  Uiso   1.00
O17    O     0.53054   0.29790   0.04616   0.00000  Uiso   1.00
O18    O     0.53054   0.23264   0.45384   0.00000  Uiso   1.00
O19    O     0.53054   0.29790   0.45384   0.00000  Uiso   1.00
O20    O     0.53054   0.23263   0.04616   0.00000  Uiso   1.00
O21    O     0.46946   0.20209   0.04616   0.00000  Uiso   1.00
O22    O     0.46946   0.26736   0.45384   0.00000  Uiso   1.00
O23    O     0.46946   0.20210   0.45384   0.00000  Uiso   1.00
O24    O     0.46946   0.26736   0.04616   0.00000  Uiso   1.00
Cu25   Cu    0.53611   0.26805  -0.00000   0.00000  Uiso   1.00
Cu26   Cu    0.46389   0.23194   0.00000   0.00000  Uiso   1.00
C27    C     0.50000   0.29226   0.05977   0.00000  Uiso   1.00
C28    C     0.50000   0.20774   0.44023   0.00000  Uiso   1.00
C29    C     0.50000   0.29225   0.44023   0.00000  Uiso   1.00
C30    C     0.50000   0.20774   0.05977   0.00000  Uiso   1.00
O31    O     0.58966   0.29483   0.49999   0.00000  Uiso   1.00
O32    O     0.41034   0.20516   0.00001   0.00000  Uiso   1.00
O33    O     0.23264   0.70210   0.45384   0.00000  Uiso   1.00
O34    O     0.29790   0.76736   0.04616   0.00000  Uiso   1.00
O35    O     0.23264   0.70210   0.04616   0.00000  Uiso   1.00
O36    O     0.29791   0.76736   0.45384   0.00000  Uiso   1.00
O37    O     0.26737   0.79790   0.45384   0.00000  Uiso   1.00
O38    O     0.20210   0.73264   0.04616   0.00000  Uiso   1.00
O39    O     0.26736   0.79790   0.04616   0.00000  Uiso   1.00
O40    O     0.20210   0.73263   0.45384   0.00000  Uiso   1.00
Cu41   Cu    0.26806   0.73194   0.00000   0.00000  Uiso   1.00
Cu42   Cu    0.23194   0.76806  -0.00000   0.00000  Uiso   1.00
C43    C     0.20774   0.70774   0.44023   0.00000  Uiso   1.00
C44    C     0.29226   0.79226   0.05977   0.00000  Uiso   1.00
C45    C     0.20774   0.70774   0.05977   0.00000  Uiso   1.00
C46    C     0.29225   0.79225   0.44023   0.00000  Uiso   1.00
O47    O     0.29483   0.70516   0.00001   0.00000  Uiso   1.00
O48    O     0.20517   0.79483   0.49999   0.00000  Uiso   1.00
O49    O     0.73264   0.20210   0.45384   0.00000  Uiso   1.00
O50    O     0.79790   0.26737   0.04616   0.00000  Uiso   1.00
O51    O     0.73264   0.20210   0.04616   0.00000  Uiso   1.00
O52    O     0.79791   0.26737   0.45384   0.00000  Uiso   1.00
O53    O     0.76737   0.29791   0.45384   0.00000  Uiso   1.00
O54    O     0.70210   0.23264   0.04616   0.00000  Uiso   1.00
O55    O     0.76736   0.29790   0.04616   0.00000  Uiso   1.00
O56    O     0.70210   0.23264   0.45384   0.00000  Uiso   1.00
Cu57   Cu    0.76806   0.23194   0.00000   0.00000  Uiso   1.00
Cu58   Cu    0.73194   0.26806  -0.00000   0.00000  Uiso   1.00
C59    C     0.70774   0.20774   0.44023   0.00000  Uiso   1.00
C60    C     0.79226   0.29226   0.05977   0.00000  Uiso   1.00
C61    C     0.70775   0.20775   0.05977   0.00000  Uiso   1.00
C62    C     0.79226   0.29226   0.44023   0.00000  Uiso   1.00
O63    O     0.79483   0.20517   0.00001   0.00000  Uiso   1.00
O64    O     0.70517   0.29484   0.49999   0.00000  Uiso   1.00
O65    O     0.53054   0.79790   0.04616   0.00000  Uiso   1.00
O66    O     0.53054   0.73264   0.45384   0.00000  Uiso   1.00
O67    O     0.53054   0.79790   0.45384   0.00000  Uiso   1.00
O68    O     0.53054   0.73264   0.04616   0.00000  Uiso   1.00
O69    O     0.46946   0.70209   0.04616   0.00000  Uiso   1.00
O70    O     0.46946   0.76736   0.45384   0.00000  Uiso   1.00
O71    O     0.46946   0.70210   0.45384   0.00000  Uiso   1.00
O72    O     0.46946   0.76736   0.04616   0.00000  Uiso   1.00
Cu73   Cu    0.53611   0.76806  -0.00000   0.00000  Uiso   1.00
Cu74   Cu    0.46389   0.73194   0.00000   0.00000  Uiso   1.00
C75    C     0.50000   0.79226   0.05977   0.00000  Uiso   1.00
C76    C     0.50000   0.70774   0.44023   0.00000  Uiso   1.00
C77    C     0.50000   0.79226   0.44023   0.00000  Uiso   1.00
C78    C     0.50000   0.70775   0.05977   0.00000  Uiso   1.00
O79    O     0.58966   0.79483   0.49999   0.00000  Uiso   1.00
O80    O     0.41034   0.70517   0.00001   0.00000  Uiso   1.00
O81    O     0.79790   0.53054   0.45384   0.00000  Uiso   1.00
O82    O     0.73264   0.53054   0.04616   0.00000  Uiso   1.00
O83    O     0.79790   0.53054   0.04616   0.00000  Uiso   1.00
O84    O     0.73264   0.53054   0.45384   0.00000  Uiso   1.00
O85    O     0.70209   0.46946   0.45384   0.00000  Uiso   1.00
O86    O     0.76736   0.46946   0.04616   0.00000  Uiso   1.00
O87    O     0.70210   0.46946   0.04616   0.00000  Uiso   1.00
O88    O     0.76736   0.46946   0.45384   0.00000  Uiso   1.00
Cu89   Cu    0.76806   0.53611   0.00000   0.00000  Uiso   1.00
Cu90   Cu    0.73194   0.46389  -0.00000   0.00000  Uiso   1.00
C91    C     0.79226   0.50000   0.44023   0.00000  Uiso   1.00
C92    C     0.70774   0.50000   0.05977   0.00000  Uiso   1.00
C93    C     0.79226   0.50000   0.05977   0.00000  Uiso   1.00
C94    C     0.70775   0.50000   0.44023   0.00000  Uiso   1.00
O95    O     0.79483   0.58966   0.00001   0.00000  Uiso   1.00
O96    O     0.70517   0.41034   0.49999   0.00000  Uiso   1.00
O97    O     0.95058   0.53441   0.16596   0.00000  Uiso   1.00
O98    O     0.90556   0.47949   0.21268   0.00000  Uiso   1.00
C99    C     0.91494   0.50504   0.17691   0.00000  Uiso   1.00
O100   O     0.04942   0.46559   0.16596   0.00000  Uiso   1.00
O101   O     0.09444   0.52051   0.21267   0.00000  Uiso   1.00
C102   C     0.08506   0.49496   0.17690   0.00000  Uiso   1.00
O103   O     0.95058   0.41617   0.16596   0.00000  Uiso   1.00
O104   O     0.90556   0.42607   0.21267   0.00000  Uiso   1.00
C105   C     0.91494   0.40990   0.17690   0.00000  Uiso   1.00
O106   O     0.04942   0.58383   0.16596   0.00000  Uiso   1.00
O107   O     0.09444   0.57393   0.21268   0.00000  Uiso   1.00
C108   C     0.08506   0.59010   0.17691   0.00000  Uiso   1.00
Zr109  Zr   -0.00000   0.53967   0.19404   0.00000  Uiso   1.00
O110   O    -0.00000   0.53644   0.12339   0.00000  Uiso   1.00
O111   O    -0.00000   0.58957   0.19952   0.00000  Uiso   1.00
Zr112  Zr   -0.00000   0.46033   0.19404   0.00000  Uiso   1.00
O113   O    -0.00000   0.46356   0.12339   0.00000  Uiso   1.00
O114   O    -0.00000   0.41043   0.19952   0.00000  Uiso   1.00
O115   O     0.96662   0.48331   0.18487   0.00000  Uiso   1.00
O116   O     0.03337   0.51669   0.18487   0.00000  Uiso   1.00
O117   O     0.04942   0.58383   0.33404   0.00000  Uiso   1.00
O118   O     0.09444   0.57393   0.28733   0.00000  Uiso   1.00
C119   C     0.08506   0.59010   0.32310   0.00000  Uiso   1.00
O120   O     0.95058   0.41617   0.33404   0.00000  Uiso   1.00
O121   O     0.90556   0.42607   0.28732   0.00000  Uiso   1.00
C122   C     0.91494   0.40990   0.32309   0.00000  Uiso   1.00
O123   O     0.04942   0.46559   0.33404   0.00000  Uiso   1.00
O124   O     0.09444   0.52051   0.28732   0.00000  Uiso   1.00
C125   C     0.08506   0.49496   0.32309   0.00000  Uiso   1.00
O126   O     0.95058   0.53441   0.33404   0.00000  Uiso   1.00
O127   O     0.90556   0.47949   0.28733   0.00000  Uiso   1.00
C128   C     0.91494   0.50504   0.32310   0.00000  Uiso   1.00
Zr129  Zr   -0.00000   0.53967   0.30596   0.00000  Uiso   1.00
O130   O    -0.00000   0.53644   0.37661   0.00000  Uiso   1.00
O131   O    -0.00000   0.58957   0.30048   0.00000  Uiso   1.00
Zr132  Zr   -0.00000   0.46033   0.30596   0.00000  Uiso   1.00
O133   O    -0.00000   0.46356   0.37661   0.00000  Uiso   1.00
O134   O    -0.00000   0.41043   0.30048   0.00000  Uiso   1.00
Zr135  Zr    0.94520   0.47260   0.25000   0.00000  Uiso   1.00
Zr136  Zr    0.05480   0.52740   0.25000   0.00000  Uiso   1.00
O137   O     0.03337   0.51669   0.31513   0.00000  Uiso   1.00
O138   O     0.96662   0.48331   0.31513   0.00000  Uiso   1.00
O139   O     0.03367   0.56299   0.25000   0.00000  Uiso   1.00
O140   O     0.96633   0.43701   0.25000   0.00000  Uiso   1.00
O141   O     0.96633   0.52932   0.25000   0.00000  Uiso   1.00
O142   O     0.03366   0.47068   0.25000   0.00000  Uiso   1.00
H143   H     0.04947   0.52474   0.15317   0.00000  Uiso   1.00
H144   H     0.94965   0.40662   0.25000   0.00000  Uiso   1.00
H145   H     0.04947   0.52474   0.34683   0.00000  Uiso   1.00
H146   H     0.94965   0.54304   0.25000   0.00000  Uiso   1.00
H147   H     0.99998   0.39329   0.22793   0.00000  Uiso   1.00
H148   H     0.00012   0.39074   0.27571   0.00000  Uiso   1.00
H149   H     0.99988   0.48137   0.40410   0.00000  Uiso   1.00
H150   H     0.99997   0.51971   0.40552   0.00000  Uiso   1.00
H151   H     0.00004   0.60427   0.26945   0.00000  Uiso   1.00
H152   H     0.99988   0.60363   0.23107   0.00000  Uiso   1.00
H153   H     0.00011   0.51285   0.10676   0.00000  Uiso   1.00
H154   H     0.00000   0.48317   0.09839   0.00000  Uiso   1.00
O155   O     0.46559   0.04942   0.33404   0.00000  Uiso   1.00
O156   O     0.52051   0.09444   0.28732   0.00000  Uiso   1.00
C157   C     0.49496   0.08506   0.32310   0.00000  Uiso   1.00
O158   O     0.53441   0.95058   0.33404   0.00000  Uiso   1.00
O159   O     0.47949   0.90556   0.28733   0.00000  Uiso   1.00
C160   C     0.50504   0.91494   0.32310   0.00000  Uiso   1.00
O161   O     0.58383   0.04942   0.33404   0.00000  Uiso   1.00
O162   O     0.57393   0.09444   0.28733   0.00000  Uiso   1.00
C163   C     0.59010   0.08506   0.32310   0.00000  Uiso   1.00
O164   O     0.41617   0.95058   0.33404   0.00000  Uiso   1.00
O165   O     0.42607   0.90556   0.28732   0.00000  Uiso   1.00
C166   C     0.40990   0.91494   0.32309   0.00000  Uiso   1.00
Zr167  Zr    0.46033   0.00000   0.30596   0.00000  Uiso   1.00
O168   O     0.46356   0.00000   0.37661   0.00000  Uiso   1.00
O169   O     0.41043   0.00000   0.30048   0.00000  Uiso   1.00
Zr170  Zr    0.53967   0.00000   0.30596   0.00000  Uiso   1.00
O171   O     0.53644   0.00000   0.37661   0.00000  Uiso   1.00
O172   O     0.58957   0.00000   0.30048   0.00000  Uiso   1.00
O173   O     0.51669   0.03338   0.31513   0.00000  Uiso   1.00
O174   O     0.48331   0.96663   0.31513   0.00000  Uiso   1.00
O175   O     0.41617   0.95058   0.16596   0.00000  Uiso   1.00
O176   O     0.42607   0.90556   0.21267   0.00000  Uiso   1.00
C177   C     0.40990   0.91494   0.17690   0.00000  Uiso   1.00
O178   O     0.58383   0.04942   0.16596   0.00000  Uiso   1.00
O179   O     0.57393   0.09444   0.21268   0.00000  Uiso   1.00
C180   C     0.59010   0.08506   0.17691   0.00000  Uiso   1.00
O181   O     0.53441   0.95058   0.16596   0.00000  Uiso   1.00
O182   O     0.47949   0.90556   0.21268   0.00000  Uiso   1.00
C183   C     0.50504   0.91494   0.17690   0.00000  Uiso   1.00
O184   O     0.46559   0.04942   0.16596   0.00000  Uiso   1.00
O185   O     0.52052   0.09444   0.21267   0.00000  Uiso   1.00
C186   C     0.49496   0.08506   0.17690   0.00000  Uiso   1.00
Zr187  Zr    0.46033   0.00000   0.19404   0.00000  Uiso   1.00
O188   O     0.46356   0.00000   0.12339   0.00000  Uiso   1.00
O189   O     0.41043   0.00000   0.19952   0.00000  Uiso   1.00
Zr190  Zr    0.53967   0.00000   0.19404   0.00000  Uiso   1.00
O191   O     0.53644   0.00000   0.12339   0.00000  Uiso   1.00
O192   O     0.58957   0.00000   0.19952   0.00000  Uiso   1.00
Zr193  Zr    0.52740   0.05480   0.25000   0.00000  Uiso   1.00
Zr194  Zr    0.47260   0.94520   0.25000   0.00000  Uiso   1.00
O195   O     0.48331   0.96663   0.18487   0.00000  Uiso   1.00
O196   O     0.51669   0.03338   0.18487   0.00000  Uiso   1.00
O197   O     0.43701   0.96633   0.25000   0.00000  Uiso   1.00
O198   O     0.56299   0.03367   0.25000   0.00000  Uiso   1.00
O199   O     0.47068   0.03367   0.25000   0.00000  Uiso   1.00
O200   O     0.52932   0.96633   0.25000   0.00000  Uiso   1.00
H201   H     0.47526   0.95053   0.34683   0.00000  Uiso   1.00
H202   H     0.59338   0.05035   0.25000   0.00000  Uiso   1.00
H203   H     0.47526   0.95053   0.15317   0.00000  Uiso   1.00
H204   H     0.45696   0.05035   0.25000   0.00000  Uiso   1.00
H205   H     0.60671   0.00002   0.27207   0.00000  Uiso   1.00
H206   H     0.60926   0.99988   0.22429   0.00000  Uiso   1.00
H207   H     0.51863   0.00012   0.09590   0.00000  Uiso   1.00
H208   H     0.48029   0.00003   0.09448   0.00000  Uiso   1.00
H209   H     0.39573   0.99996   0.23055   0.00000  Uiso   1.00
H210   H     0.39637   0.00012   0.26893   0.00000  Uiso   1.00
H211   H     0.48715   0.99989   0.39324   0.00000  Uiso   1.00
H212   H     0.51683  -0.00000   0.40161   0.00000  Uiso   1.00
O213   O     0.46559   0.41617   0.16596   0.00000  Uiso   1.00
O214   O     0.52051   0.42607   0.21268   0.00000  Uiso   1.00
C215   C     0.49496   0.40990   0.17691   0.00000  Uiso   1.00
O216   O     0.53441   0.58383   0.16596   0.00000  Uiso   1.00
O217   O     0.47949   0.57393   0.21267   0.00000  Uiso   1.00
C218   C     0.50504   0.59010   0.17690   0.00000  Uiso   1.00
O219   O     0.58383   0.53441   0.16596   0.00000  Uiso   1.00
O220   O     0.57393   0.47949   0.21267   0.00000  Uiso   1.00
C221   C     0.59010   0.50504   0.17690   0.00000  Uiso   1.00
O222   O     0.41617   0.46559   0.16596   0.00000  Uiso   1.00
O223   O     0.42607   0.52051   0.21268   0.00000  Uiso   1.00
C224   C     0.40990   0.49496   0.17691   0.00000  Uiso   1.00
Zr225  Zr    0.46033   0.46033   0.19404   0.00000  Uiso   1.00
O226   O     0.46356   0.46356   0.12339   0.00000  Uiso   1.00
O227   O     0.41043   0.41043   0.19952   0.00000  Uiso   1.00
Zr228  Zr    0.53967   0.53967   0.19404   0.00000  Uiso   1.00
O229   O     0.53644   0.53644   0.12339   0.00000  Uiso   1.00
O230   O     0.58957   0.58957   0.19952   0.00000  Uiso   1.00
O231   O     0.51669   0.48331   0.18487   0.00000  Uiso   1.00
O232   O     0.48331   0.51669   0.18487   0.00000  Uiso   1.00
O233   O     0.41617   0.46559   0.33404   0.00000  Uiso   1.00
O234   O     0.42607   0.52051   0.28733   0.00000  Uiso   1.00
C235   C     0.40990   0.49496   0.32310   0.00000  Uiso   1.00
O236   O     0.58383   0.53441   0.33404   0.00000  Uiso   1.00
O237   O     0.57393   0.47949   0.28732   0.00000  Uiso   1.00
C238   C     0.59010   0.50504   0.32309   0.00000  Uiso   1.00
O239   O     0.53441   0.58383   0.33404   0.00000  Uiso   1.00
O240   O     0.47949   0.57393   0.28732   0.00000  Uiso   1.00
C241   C     0.50504   0.59010   0.32309   0.00000  Uiso   1.00
O242   O     0.46559   0.41617   0.33404   0.00000  Uiso   1.00
O243   O     0.52051   0.42607   0.28733   0.00000  Uiso   1.00
C244   C     0.49496   0.40990   0.32310   0.00000  Uiso   1.00
Zr245  Zr    0.46033   0.46033   0.30596   0.00000  Uiso   1.00
O246   O     0.46356   0.46356   0.37661   0.00000  Uiso   1.00
O247   O     0.41043   0.41043   0.30048   0.00000  Uiso   1.00
Zr248  Zr    0.53967   0.53967   0.30596   0.00000  Uiso   1.00
O249   O     0.53644   0.53644   0.37661   0.00000  Uiso   1.00
O250   O     0.58957   0.58957   0.30048   0.00000  Uiso   1.00
Zr251  Zr    0.52740   0.47260   0.25000   0.00000  Uiso   1.00
Zr252  Zr    0.47260   0.52740   0.25000   0.00000  Uiso   1.00
O253   O     0.48331   0.51669   0.31513   0.00000  Uiso   1.00
O254   O     0.51669   0.48331   0.31513   0.00000  Uiso   1.00
O255   O     0.43701   0.47068   0.25000   0.00000  Uiso   1.00
O256   O     0.56299   0.52932   0.25000   0.00000  Uiso   1.00
O257   O     0.47068   0.43701   0.25000   0.00000  Uiso   1.00
O258   O     0.52932   0.56299   0.25000   0.00000  Uiso   1.00
H259   H     0.47526   0.52474   0.15317   0.00000  Uiso   1.00
H260   H     0.59338   0.54304   0.25000   0.00000  Uiso   1.00
H261   H     0.47526   0.52474   0.34683   0.00000  Uiso   1.00
H262   H     0.45696   0.40662   0.25000   0.00000  Uiso   1.00
H263   H     0.60671   0.60669   0.22793   0.00000  Uiso   1.00
H264   H     0.60926   0.60938   0.27571   0.00000  Uiso   1.00
H265   H     0.51863   0.51851   0.40410   0.00000  Uiso   1.00
H266   H     0.48029   0.48026   0.40552   0.00000  Uiso   1.00
H267   H     0.39573   0.39577   0.26945   0.00000  Uiso   1.00
H268   H     0.39637   0.39624   0.23107   0.00000  Uiso   1.00
H269   H     0.48715   0.48725   0.10676   0.00000  Uiso   1.00
H270   H     0.51683   0.51683   0.09839   0.00000  Uiso   1.00
C271   C     0.13277   0.48452   0.05968   0.00000  Uiso   1.00
C272   C     0.17207   0.50000   0.07793   0.00000  Uiso   1.00
C273   C     0.18145   0.51548   0.12610   0.00000  Uiso   1.00
C274   C     0.15154   0.51548   0.15601   0.00000  Uiso   1.00
C275   C     0.11224   0.50000   0.13776   0.00000  Uiso   1.00
C276   C     0.10286   0.48452   0.08959   0.00000  Uiso   1.00
H277   H     0.12583   0.47307   0.02403   0.00000  Uiso   1.00
H278   H     0.21053   0.52693   0.13961   0.00000  Uiso   1.00
H279   H     0.15848   0.52693   0.19166   0.00000  Uiso   1.00
H280   H     0.07378   0.47307   0.07608   0.00000  Uiso   1.00
C281   C     0.13277   0.48452   0.44032   0.00000  Uiso   1.00
C282   C     0.17207   0.50000   0.42207   0.00000  Uiso   1.00
C283   C     0.18145   0.51548   0.37390   0.00000  Uiso   1.00
C284   C     0.15154   0.51548   0.34399   0.00000  Uiso   1.00
C285   C     0.11224   0.50000   0.36224   0.00000  Uiso   1.00
C286   C     0.10286   0.48452   0.41041   0.00000  Uiso   1.00
H287   H     0.12583   0.47307   0.47597   0.00000  Uiso   1.00
H288   H     0.21053   0.52693   0.36039   0.00000  Uiso   1.00
H289   H     0.15848   0.52693   0.30834   0.00000  Uiso   1.00
H290   H     0.07378   0.47307   0.42392   0.00000  Uiso   1.00
C291   C     0.32846   0.46406   0.08581   0.00000  Uiso   1.00
C292   C     0.32793   0.50000   0.07793   0.00000  Uiso   1.00
C293   C     0.35732   0.53594   0.09997   0.00000  Uiso   1.00
C294   C     0.38723   0.53594   0.12988   0.00000  Uiso   1.00
C295   C     0.38776   0.50000   0.13776   0.00000  Uiso   1.00
C296   C     0.35837   0.46406   0.11572   0.00000  Uiso   1.00
H297   H     0.30670   0.43745   0.06950   0.00000  Uiso   1.00
H298   H     0.35693   0.56255   0.09414   0.00000  Uiso   1.00
H299   H     0.40898   0.56255   0.14619   0.00000  Uiso   1.00
H300   H     0.35875   0.43745   0.12155   0.00000  Uiso   1.00
C301   C     0.33055   0.46488   0.41754   0.00000  Uiso   1.00
C302   C     0.32793   0.50000   0.42207   0.00000  Uiso   1.00
C303   C     0.35523   0.53512   0.39668   0.00000  Uiso   1.00
C304   C     0.38514   0.53512   0.36677   0.00000  Uiso   1.00
C305   C     0.38776   0.50000   0.36224   0.00000  Uiso   1.00
C306   C     0.36046   0.46488   0.38763   0.00000  Uiso   1.00
H307   H     0.31034   0.43889   0.43634   0.00000  Uiso   1.00
H308   H     0.35330   0.56111   0.40003   0.00000  Uiso   1.00
H309   H     0.40535   0.56111   0.34798   0.00000  Uiso   1.00
H310   H     0.36239   0.43889   0.38428   0.00000  Uiso   1.00
C311   C     0.52953   0.18271   0.11457   0.00000  Uiso   1.00
C312   C     0.50000   0.17207   0.07793   0.00000  Uiso   1.00
C313   C     0.47047   0.13151   0.07121   0.00000  Uiso   1.00
C314   C     0.47047   0.10160   0.10112   0.00000  Uiso   1.00
C315   C     0.50000   0.11225   0.13776   0.00000  Uiso   1.00
C316   C     0.52953   0.15280   0.14448   0.00000  Uiso   1.00
H317   H     0.55139   0.21274   0.11955   0.00000  Uiso   1.00
H318   H     0.44861   0.12363   0.04409   0.00000  Uiso   1.00
H319   H     0.44861   0.07158   0.09614   0.00000  Uiso   1.00
H320   H     0.55139   0.16068   0.17160   0.00000  Uiso   1.00
C321   C     0.50180   0.17630   0.37052   0.00000  Uiso   1.00
C322   C     0.50000   0.17207   0.42207   0.00000  Uiso   1.00
C323   C     0.49820   0.13792   0.44371   0.00000  Uiso   1.00
C324   C     0.49820   0.10801   0.41380   0.00000  Uiso   1.00
C325   C     0.50000   0.11225   0.36224   0.00000  Uiso   1.00
C326   C     0.50180   0.14639   0.34061   0.00000  Uiso   1.00
H327   H     0.50313   0.20158   0.35450   0.00000  Uiso   1.00
H328   H     0.49687   0.13479   0.48186   0.00000  Uiso   1.00
H329   H     0.49687   0.08273   0.42981   0.00000  Uiso   1.00
H330   H     0.50313   0.14953   0.30245   0.00000  Uiso   1.00
C331   C     0.53395   0.35299   0.10664   0.00000  Uiso   1.00
C332   C     0.50000   0.32793   0.07793   0.00000  Uiso   1.00
C333   C     0.46605   0.33278   0.07914   0.00000  Uiso   1.00
C334   C     0.46605   0.36270   0.10905   0.00000  Uiso   1.00
C335   C     0.50000   0.38776   0.13776   0.00000  Uiso   1.00
C336   C     0.53395   0.38290   0.13655   0.00000  Uiso   1.00
H337   H     0.55909   0.34940   0.10575   0.00000  Uiso   1.00
H338   H     0.44091   0.31424   0.05789   0.00000  Uiso   1.00
H339   H     0.44091   0.36629   0.10994   0.00000  Uiso   1.00
H340   H     0.55909   0.40145   0.15780   0.00000  Uiso   1.00
C341   C     0.52773   0.34479   0.38317   0.00000  Uiso   1.00
C342   C     0.50000   0.32793   0.42207   0.00000  Uiso   1.00
C343   C     0.47227   0.34099   0.43105   0.00000  Uiso   1.00
C344   C     0.47227   0.37090   0.40114   0.00000  Uiso   1.00
C345   C     0.50000   0.38776   0.36224   0.00000  Uiso   1.00
C346   C     0.52773   0.37470   0.35326   0.00000  Uiso   1.00
H347   H     0.54826   0.33512   0.37652   0.00000  Uiso   1.00
H348   H     0.45174   0.32851   0.45984   0.00000  Uiso   1.00
H349   H     0.45174   0.38056   0.40779   0.00000  Uiso   1.00
H350   H     0.54826   0.38718   0.32447   0.00000  Uiso   1.00
C351   C     0.17543   0.63880   0.09289   0.00000  Uiso   1.00
C352   C     0.17207   0.67207   0.07793   0.00000  Uiso   1.00
C353   C     0.13880   0.67543   0.09289   0.00000  Uiso   1.00
C354   C     0.10889   0.64552   0.12280   0.00000  Uiso   1.00
C355   C     0.11224   0.61225   0.13776   0.00000  Uiso   1.00
C356   C     0.14552   0.60888   0.12280   0.00000  Uiso   1.00
H357   H     0.20006   0.63631   0.08182   0.00000  Uiso   1.00
H358   H     0.13631   0.70006   0.08182   0.00000  Uiso   1.00
H359   H     0.08425   0.64800   0.13387   0.00000  Uiso   1.00
H360   H     0.14800   0.58426   0.13387   0.00000  Uiso   1.00
C361   C     0.17543   0.63880   0.40711   0.00000  Uiso   1.00
C362   C     0.17207   0.67207   0.42207   0.00000  Uiso   1.00
C363   C     0.13880   0.67543   0.40711   0.00000  Uiso   1.00
C364   C     0.10889   0.64552   0.37720   0.00000  Uiso   1.00
C365   C     0.11224   0.61225   0.36224   0.00000  Uiso   1.00
C366   C     0.14552   0.60888   0.37720   0.00000  Uiso   1.00
H367   H     0.20006   0.63631   0.41818   0.00000  Uiso   1.00
H368   H     0.13631   0.70006   0.41818   0.00000  Uiso   1.00
H369   H     0.08425   0.64800   0.36613   0.00000  Uiso   1.00
H370   H     0.14800   0.58426   0.36613   0.00000  Uiso   1.00
C371   C     0.85920   0.32277   0.09670   0.00000  Uiso   1.00
C372   C     0.82793   0.32793   0.07793   0.00000  Uiso   1.00
C373   C     0.82658   0.36301   0.08907   0.00000  Uiso   1.00
C374   C     0.85649   0.39292   0.11899   0.00000  Uiso   1.00
C375   C     0.88775   0.38776   0.13776   0.00000  Uiso   1.00
C376   C     0.88911   0.35268   0.12661   0.00000  Uiso   1.00
H377   H     0.86020   0.29680   0.08845   0.00000  Uiso   1.00
H378   H     0.80344   0.36684   0.07518   0.00000  Uiso   1.00
H379   H     0.85549   0.41889   0.12723   0.00000  Uiso   1.00
H380   H     0.91225   0.34885   0.14051   0.00000  Uiso   1.00
C381   C     0.83055   0.46488   0.08246   0.00000  Uiso   1.00
C382   C     0.82793   0.50000   0.07793   0.00000  Uiso   1.00
C383   C     0.85523   0.53512   0.10332   0.00000  Uiso   1.00
C384   C     0.88514   0.53512   0.13323   0.00000  Uiso   1.00
C385   C     0.88775   0.50000   0.13776   0.00000  Uiso   1.00
C386   C     0.86046   0.46488   0.11237   0.00000  Uiso   1.00
H387   H     0.81034   0.43889   0.06366   0.00000  Uiso   1.00
H388   H     0.85330   0.56111   0.09997   0.00000  Uiso   1.00
H389   H     0.90535   0.56111   0.15202   0.00000  Uiso   1.00
H390   H     0.86239   0.43889   0.11572   0.00000  Uiso   1.00
C391   C     0.85920   0.32277   0.40330   0.00000  Uiso   1.00
C392   C     0.82793   0.32793   0.42207   0.00000  Uiso   1.00
C393   C     0.82658   0.36301   0.41093   0.00000  Uiso   1.00
C394   C     0.85649   0.39292   0.38101   0.00000  Uiso   1.00
C395   C     0.88775   0.38776   0.36224   0.00000  Uiso   1.00
C396   C     0.88911   0.35268   0.37339   0.00000  Uiso   1.00
H397   H     0.86020   0.29680   0.41155   0.00000  Uiso   1.00
H398   H     0.80344   0.36684   0.42482   0.00000  Uiso   1.00
H399   H     0.85549   0.41889   0.37277   0.00000  Uiso   1.00
H400   H     0.91225   0.34885   0.35949   0.00000  Uiso   1.00
C401   C     0.83055   0.46488   0.41754   0.00000  Uiso   1.00
C402   C     0.82793   0.50000   0.42207   0.00000  Uiso   1.00
C403   C     0.85523   0.53512   0.39668   0.00000  Uiso   1.00
C404   C     0.88514   0.53512   0.36677   0.00000  Uiso   1.00
C405   C     0.88775   0.50000   0.36224   0.00000  Uiso   1.00
C406   C     0.86046   0.46488   0.38763   0.00000  Uiso   1.00
H407   H     0.81034   0.43889   0.43634   0.00000  Uiso   1.00
H408   H     0.85330   0.56111   0.40003   0.00000  Uiso   1.00
H409   H     0.90535   0.56111   0.34798   0.00000  Uiso   1.00
H410   H     0.86239   0.43889   0.38428   0.00000  Uiso   1.00
C411   C     0.36530   0.82990   0.08346   0.00000  Uiso   1.00
C412   C     0.32793   0.82793   0.07793   0.00000  Uiso   1.00
C413   C     0.32048   0.85587   0.10232   0.00000  Uiso   1.00
C414   C     0.35039   0.88578   0.13223   0.00000  Uiso   1.00
C415   C     0.38776   0.88775   0.13776   0.00000  Uiso   1.00
C416   C     0.39521   0.85981   0.11337   0.00000  Uiso   1.00
H417   H     0.37082   0.80922   0.06541   0.00000  Uiso   1.00
H418   H     0.29282   0.85442   0.09823   0.00000  Uiso   1.00
H419   H     0.34487   0.90647   0.15028   0.00000  Uiso   1.00
H420   H     0.42287   0.86127   0.11746   0.00000  Uiso   1.00
C421   C     0.46338   0.82511   0.09182   0.00000  Uiso   1.00
C422   C     0.50000   0.82793   0.07793   0.00000  Uiso   1.00
C423   C     0.53662   0.86066   0.09396   0.00000  Uiso   1.00
C424   C     0.53662   0.89057   0.12387   0.00000  Uiso   1.00
C425   C     0.50000   0.88775   0.13776   0.00000  Uiso   1.00
C426   C     0.46338   0.85503   0.12173   0.00000  Uiso   1.00
H427   H     0.43628   0.80089   0.07996   0.00000  Uiso   1.00
H428   H     0.56372   0.86275   0.08368   0.00000  Uiso   1.00
H429   H     0.56372   0.91480   0.13573   0.00000  Uiso   1.00
H430   H     0.43628   0.85294   0.13201   0.00000  Uiso   1.00
C431   C     0.64243   0.17845   0.09955   0.00000  Uiso   1.00
C432   C     0.67207   0.17207   0.07793   0.00000  Uiso   1.00
C433   C     0.67179   0.13577   0.08622   0.00000  Uiso   1.00
C434   C     0.64188   0.10586   0.11613   0.00000  Uiso   1.00
C435   C     0.61225   0.11225   0.13776   0.00000  Uiso   1.00
C436   C     0.61252   0.14854   0.12946   0.00000  Uiso   1.00
H437   H     0.64264   0.20532   0.09342   0.00000  Uiso   1.00
H438   H     0.69373   0.13104   0.07022   0.00000  Uiso   1.00
H439   H     0.64167   0.07899   0.12227   0.00000  Uiso   1.00
H440   H     0.59059   0.15327   0.14547   0.00000  Uiso   1.00
C441   C     0.36530   0.82990   0.41654   0.00000  Uiso   1.00
C442   C     0.32793   0.82793   0.42207   0.00000  Uiso   1.00
C443   C     0.32048   0.85587   0.39768   0.00000  Uiso   1.00
C444   C     0.35039   0.88578   0.36777   0.00000  Uiso   1.00
C445   C     0.38776   0.88775   0.36224   0.00000  Uiso   1.00
C446   C     0.39521   0.85981   0.38663   0.00000  Uiso   1.00
H447   H     0.37082   0.80922   0.43459   0.00000  Uiso   1.00
H448   H     0.29282   0.85442   0.40177   0.00000  Uiso   1.00
H449   H     0.34487   0.90647   0.34972   0.00000  Uiso   1.00
H450   H     0.42287   0.86127   0.38254   0.00000  Uiso   1.00
C451   C     0.53425   0.85351   0.39410   0.00000  Uiso   1.00
C452   C     0.50000   0.82793   0.42207   0.00000  Uiso   1.00
C453   C     0.46575   0.83227   0.42012   0.00000  Uiso   1.00
C454   C     0.46575   0.86218   0.39021   0.00000  Uiso   1.00
C455   C     0.50000   0.88775   0.36224   0.00000  Uiso   1.00
C456   C     0.53425   0.88342   0.36419   0.00000  Uiso   1.00
H457   H     0.55960   0.85030   0.39555   0.00000  Uiso   1.00
H458   H     0.44041   0.81334   0.44082   0.00000  Uiso   1.00
H459   H     0.44040   0.86539   0.38877   0.00000  Uiso   1.00
H460   H     0.55959   0.90235   0.34350   0.00000  Uiso   1.00
C461   C     0.67543   0.13880   0.40711   0.00000  Uiso   1.00
C462   C     0.67207   0.17207   0.42207   0.00000  Uiso   1.00
C463   C     0.63880   0.17543   0.40711   0.00000  Uiso   1.00
C464   C     0.60888   0.14552   0.37720   0.00000  Uiso   1.00
C465   C     0.61225   0.11225   0.36224   0.00000  Uiso   1.00
C466   C     0.64552   0.10888   0.37720   0.00000  Uiso   1.00
H467   H     0.70006   0.13631   0.41818   0.00000  Uiso   1.00
H468   H     0.63631   0.20006   0.41818   0.00000  Uiso   1.00
H469   H     0.58425   0.14800   0.36613   0.00000  Uiso   1.00
H470   H     0.64800   0.08426   0.36613   0.00000  Uiso   1.00
C471   C     0.51960   0.68238   0.12384   0.00000  Uiso   1.00
C472   C     0.50000   0.67207   0.07793   0.00000  Uiso   1.00
C473   C     0.48041   0.63184   0.06193   0.00000  Uiso   1.00
C474   C     0.48041   0.60193   0.09184   0.00000  Uiso   1.00
C475   C     0.50000   0.61225   0.13776   0.00000  Uiso   1.00
C476   C     0.51960   0.65247   0.15376   0.00000  Uiso   1.00
H477   H     0.53410   0.71216   0.13569   0.00000  Uiso   1.00
H478   H     0.46590   0.62420   0.02795   0.00000  Uiso   1.00
H479   H     0.46590   0.57215   0.08000   0.00000  Uiso   1.00
H480   H     0.53410   0.66011   0.18774   0.00000  Uiso   1.00
C481   C     0.48041   0.63184   0.43807   0.00000  Uiso   1.00
C482   C     0.50000   0.67207   0.42207   0.00000  Uiso   1.00
C483   C     0.51960   0.68238   0.37616   0.00000  Uiso   1.00
C484   C     0.51960   0.65247   0.34624   0.00000  Uiso   1.00
C485   C     0.50000   0.61225   0.36224   0.00000  Uiso   1.00
C486   C     0.48041   0.60193   0.40816   0.00000  Uiso   1.00
H487   H     0.46590   0.62420   0.47205   0.00000  Uiso   1.00
H488   H     0.53410   0.71216   0.36431   0.00000  Uiso   1.00
H489   H     0.53410   0.66011   0.31226   0.00000  Uiso   1.00
H490   H     0.46590   0.57215   0.42000   0.00000  Uiso   1.00
C491   C     0.63184   0.48040   0.06193   0.00000  Uiso   1.00
C492   C     0.67207   0.50000   0.07793   0.00000  Uiso   1.00
C493   C     0.68238   0.51960   0.12384   0.00000  Uiso   1.00
C494   C     0.65247   0.51960   0.15375   0.00000  Uiso   1.00
C495   C     0.61225   0.50000   0.13776   0.00000  Uiso   1.00
C496   C     0.60193   0.48040   0.09184   0.00000  Uiso   1.00
H497   H     0.62420   0.46590   0.02795   0.00000  Uiso   1.00
H498   H     0.71216   0.53410   0.13569   0.00000  Uiso   1.00
H499   H     0.66011   0.53410   0.18774   0.00000  Uiso   1.00
H500   H     0.57215   0.46590   0.08000   0.00000  Uiso   1.00
C501   C     0.63277   0.48452   0.44032   0.00000  Uiso   1.00
C502   C     0.67207   0.50000   0.42207   0.00000  Uiso   1.00
C503   C     0.68145   0.51548   0.37390   0.00000  Uiso   1.00
C504   C     0.65154   0.51548   0.34399   0.00000  Uiso   1.00
C505   C     0.61225   0.50000   0.36224   0.00000  Uiso   1.00
C506   C     0.60286   0.48452   0.41041   0.00000  Uiso   1.00
H507   H     0.62583   0.47307   0.47597   0.00000  Uiso   1.00
H508   H     0.71053   0.52693   0.36039   0.00000  Uiso   1.00
H509   H     0.65848   0.52693   0.30834   0.00000  Uiso   1.00
H510   H     0.57378   0.47307   0.42392   0.00000  Uiso   1.00
O511   O     0.26736   0.46946   0.54616   0.00000  Uiso   1.00
O512   O     0.20210   0.46946   0.95384   0.00000  Uiso   1.00
O513   O     0.26736   0.46946   0.95384   0.00000  Uiso   1.00
O514   O     0.20209   0.46946   0.54616   0.00000  Uiso   1.00
O515   O     0.23263   0.53054   0.54616   0.00000  Uiso   1.00
O516   O     0.29790   0.53054   0.95384   0.00000  Uiso   1.00
O517   O     0.23264   0.53054   0.95384   0.00000  Uiso   1.00
O518   O     0.29790   0.53054   0.54616   0.00000  Uiso   1.00
Cu519  Cu    0.23194   0.46389   0.50000   0.00000  Uiso   1.00
Cu520  Cu    0.26806   0.53611   0.50000   0.00000  Uiso   1.00
C521   C     0.29226   0.50000   0.55977   0.00000  Uiso   1.00
C522   C     0.20774   0.50000   0.94023   0.00000  Uiso   1.00
C523   C     0.29225   0.50000   0.94023   0.00000  Uiso   1.00
C524   C     0.20774   0.50000   0.55977   0.00000  Uiso   1.00
O525   O     0.20517   0.41034   0.99999   0.00000  Uiso   1.00
O526   O     0.29483   0.58966   0.50001   0.00000  Uiso   1.00
O527   O     0.53054   0.29790   0.54616   0.00000  Uiso   1.00
O528   O     0.53054   0.23264   0.95384   0.00000  Uiso   1.00
O529   O     0.53054   0.29790   0.95384   0.00000  Uiso   1.00
O530   O     0.53054   0.23263   0.54616   0.00000  Uiso   1.00
O531   O     0.46946   0.20209   0.54616   0.00000  Uiso   1.00
O532   O     0.46946   0.26736   0.95384   0.00000  Uiso   1.00
O533   O     0.46946   0.20210   0.95384   0.00000  Uiso   1.00
O534   O     0.46946   0.26736   0.54616   0.00000  Uiso   1.00
Cu535  Cu    0.53611   0.26805   0.50000   0.00000  Uiso   1.00
Cu536  Cu    0.46389   0.23194   0.50000   0.00000  Uiso   1.00
C537   C     0.50000   0.29226   0.55977   0.00000  Uiso   1.00
C538   C     0.50000   0.20774   0.94023   0.00000  Uiso   1.00
C539   C     0.50000   0.29225   0.94023   0.00000  Uiso   1.00
C540   C     0.50000   0.20774   0.55977   0.00000  Uiso   1.00
O541   O     0.58966   0.29483   0.99999   0.00000  Uiso   1.00
O542   O     0.41034   0.20516   0.50001   0.00000  Uiso   1.00
O543   O     0.23264   0.70210   0.95384   0.00000  Uiso   1.00
O544   O     0.29790   0.76736   0.54616   0.00000  Uiso   1.00
O545   O     0.23264   0.70210   0.54616   0.00000  Uiso   1.00
O546   O     0.29791   0.76736   0.95384   0.00000  Uiso   1.00
O547   O     0.26737   0.79790   0.95384   0.00000  Uiso   1.00
O548   O     0.20210   0.73264   0.54616   0.00000  Uiso   1.00
O549   O     0.26736   0.79790   0.54616   0.00000  Uiso   1.00
O550   O     0.20210   0.73263   0.95384   0.00000  Uiso   1.00
Cu551  Cu    0.26806   0.73194   0.50000   0.00000  Uiso   1.00
Cu552  Cu    0.23194   0.76806   0.50000   0.00000  Uiso   1.00
C553   C     0.20774   0.70774   0.94023   0.00000  Uiso   1.00
C554   C     0.29226   0.79226   0.55977   0.00000  Uiso   1.00
C555   C     0.20774   0.70774   0.55977   0.00000  Uiso   1.00
C556   C     0.29225   0.79225   0.94023   0.00000  Uiso   1.00
O557   O     0.29483   0.70516   0.50001   0.00000  Uiso   1.00
O558   O     0.20517   0.79483   0.99999   0.00000  Uiso   1.00
O559   O     0.73264   0.20210   0.95384   0.00000  Uiso   1.00
O560   O     0.79790   0.26737   0.54616   0.00000  Uiso   1.00
O561   O     0.73264   0.20210   0.54616   0.00000  Uiso   1.00
O562   O     0.79791   0.26737   0.95384   0.00000  Uiso   1.00
O563   O     0.76737   0.29791   0.95384   0.00000  Uiso   1.00
O564   O     0.70210   0.23264   0.54616   0.00000  Uiso   1.00
O565   O     0.76736   0.29790   0.54616   0.00000  Uiso   1.00
O566   O     0.70210   0.23264   0.95384   0.00000  Uiso   1.00
Cu567  Cu    0.76806   0.23194   0.50000   0.00000  Uiso   1.00
Cu568  Cu    0.73194   0.26806   0.50000   0.00000  Uiso   1.00
C569   C     0.70774   0.20774   0.94023   0.00000  Uiso   1.00
C570   C     0.79226   0.29226   0.55977   0.00000  Uiso   1.00
C571   C     0.70775   0.20775   0.55977   0.00000  Uiso   1.00
C572   C     0.79226   0.29226   0.94023   0.00000  Uiso   1.00
O573   O     0.79483   0.20517   0.50001   0.00000  Uiso   1.00
O574   O     0.70517   0.29484   0.99999   0.00000  Uiso   1.00
O575   O     0.53054   0.79790   0.54616   0.00000  Uiso   1.00
O576   O     0.53054   0.73264   0.95384   0.00000  Uiso   1.00
O577   O     0.53054   0.79790   0.95384   0.00000  Uiso   1.00
O578   O     0.53054   0.73264   0.54616   0.00000  Uiso   1.00
O579   O     0.46946   0.70209   0.54616   0.00000  Uiso   1.00
O580   O     0.46946   0.76736   0.95384   0.00000  Uiso   1.00
O581   O     0.46946   0.70210   0.95384   0.00000  Uiso   1.00
O582   O     0.46946   0.76736   0.54616   0.00000  Uiso   1.00
Cu583  Cu    0.53611   0.76806   0.50000   0.00000  Uiso   1.00
Cu584  Cu    0.46389   0.73194   0.50000   0.00000  Uiso   1.00
C585   C     0.50000   0.79226   0.55977   0.00000  Uiso   1.00
C586   C     0.50000   0.70774   0.94023   0.00000  Uiso   1.00
C587   C     0.50000   0.79226   0.94023   0.00000  Uiso   1.00
C588   C     0.50000   0.70775   0.55977   0.00000  Uiso   1.00
O589   O     0.58966   0.79483   0.99999   0.00000  Uiso   1.00
O590   O     0.41034   0.70517   0.50001   0.00000  Uiso   1.00
O591   O     0.79790   0.53054   0.95384   0.00000  Uiso   1.00
O592   O     0.73264   0.53054   0.54616   0.00000  Uiso   1.00
O593   O     0.79790   0.53054   0.54616   0.00000  Uiso   1.00
O594   O     0.73264   0.53054   0.95384   0.00000  Uiso   1.00
O595   O     0.70209   0.46946   0.95384   0.00000  Uiso   1.00
O596   O     0.76736   0.46946   0.54616   0.00000  Uiso   1.00
O597   O     0.70210   0.46946   0.54616   0.00000  Uiso   1.00
O598   O     0.76736   0.46946   0.95384   0.00000  Uiso   1.00
Cu599  Cu    0.76806   0.53611   0.50000   0.00000  Uiso   1.00
Cu600  Cu    0.73194   0.46389   0.50000   0.00000  Uiso   1.00
C601   C     0.79226   0.50000   0.94023   0.00000  Uiso   1.00
C602   C     0.70774   0.50000   0.55977   0.00000  Uiso   1.00
C603   C     0.79226   0.50000   0.55977   0.00000  Uiso   1.00
C604   C     0.70775   0.50000   0.94023   0.00000  Uiso   1.00
O605   O     0.79483   0.58966   0.50001   0.00000  Uiso   1.00
O606   O     0.70517   0.41034   0.99999   0.00000  Uiso   1.00
O607   O     0.95058   0.53441   0.66596   0.00000  Uiso   1.00
O608   O     0.90556   0.47949   0.71268   0.00000  Uiso   1.00
C609   C     0.91494   0.50504   0.67691   0.00000  Uiso   1.00
O610   O     0.04942   0.46559   0.66596   0.00000  Uiso   1.00
O611   O     0.09444   0.52051   0.71267   0.00000  Uiso   1.00
C612   C     0.08506   0.49496   0.67690   0.00000  Uiso   1.00
O613   O     0.95058   0.41617   0.66596   0.00000  Uiso   1.00
O614   O     0.90556   0.42607   0.71267   0.00000  Uiso   1.00
C615   C     0.91494   0.40990   0.67690   0.00000  Uiso   1.00
O616   O     0.04942   0.58383   0.66596   0.00000  Uiso   1.00
O617   O     0.09444   0.57393   0.71268   0.00000  Uiso   1.00
C618   C     0.08506   0.59010   0.67691   0.00000  Uiso   1.00
Zr619  Zr   -0.00000   0.53967   0.69404   0.00000  Uiso   1.00
O620   O    -0.00000   0.53644   0.62339   0.00000  Uiso   1.00
O621   O    -0.00000   0.58957   0.69952   0.00000  Uiso   1.00
Zr622  Zr   -0.00000   0.46033   0.69404   0.00000  Uiso   1.00
O623   O    -0.00000   0.46356   0.62339   0.00000  Uiso   1.00
O624   O    -0.00000   0.41043   0.69952   0.00000  Uiso   1.00
O625   O     0.96662   0.48331   0.68487   0.00000  Uiso   1.00
O626   O     0.03337   0.51669   0.68487   0.00000  Uiso   1.00
O627   O     0.04942   0.58383   0.83404   0.00000  Uiso   1.00
O628   O     0.09444   0.57393   0.78733   0.00000  Uiso   1.00
C629   C     0.08506   0.59010   0.82310   0.00000  Uiso   1.00
O630   O     0.95058   0.41617   0.83404   0.00000  Uiso   1.00
O631   O     0.90556   0.42607   0.78732   0.00000  Uiso   1.00
C632   C     0.91494   0.40990   0.82309   0.00000  Uiso   1.00
O633   O     0.04942   0.46559   0.83404   0.00000  Uiso   1.00
O634   O     0.09444   0.52051   0.78732   0.00000  Uiso   1.00
C635   C     0.08506   0.49496   0.82309   0.00000  Uiso   1.00
O636   O     0.95058   0.53441   0.83404   0.00000  Uiso   1.00
O637   O     0.90556   0.47949   0.78733   0.00000  Uiso   1.00
C638   C     0.91494   0.50504   0.82310   0.00000  Uiso   1.00
Zr639  Zr   -0.00000   0.53967   0.80596   0.00000  Uiso   1.00
O640   O    -0.00000   0.53644   0.87661   0.00000  Uiso   1.00
O641   O    -0.00000   0.58957   0.80048   0.00000  Uiso   1.00
Zr642  Zr   -0.00000   0.46033   0.80596   0.00000  Uiso   1.00
O643   O    -0.00000   0.46356   0.87661   0.00000  Uiso   1.00
O644   O    -0.00000   0.41043   0.80048   0.00000  Uiso   1.00
Zr645  Zr    0.94520   0.47260   0.75000   0.00000  Uiso   1.00
Zr646  Zr    0.05480   0.52740   0.75000   0.00000  Uiso   1.00
O647   O     0.03337   0.51669   0.81513   0.00000  Uiso   1.00
O648   O     0.96662   0.48331   0.81513   0.00000  Uiso   1.00
O649   O     0.03367   0.56299   0.75000   0.00000  Uiso   1.00
O650   O     0.96633   0.43701   0.75000   0.00000  Uiso   1.00
O651   O     0.96633   0.52932   0.75000   0.00000  Uiso   1.00
O652   O     0.03366   0.47068   0.75000   0.00000  Uiso   1.00
H653   H     0.04947   0.52474   0.65317   0.00000  Uiso   1.00
H654   H     0.94965   0.40662   0.75000   0.00000  Uiso   1.00
H655   H     0.04947   0.52474   0.84683   0.00000  Uiso   1.00
H656   H     0.94965   0.54304   0.75000   0.00000  Uiso   1.00
H657   H     0.99998   0.39329   0.72793   0.00000  Uiso   1.00
H658   H     0.00012   0.39074   0.77571   0.00000  Uiso   1.00
H659   H     0.99988   0.48137   0.90410   0.00000  Uiso   1.00
H660   H     0.99997   0.51971   0.90552   0.00000  Uiso   1.00
H661   H     0.00004   0.60427   0.76945   0.00000  Uiso   1.00
H662   H     0.99988   0.60363   0.73107   0.00000  Uiso   1.00
H663   H     0.00011   0.51285   0.60676   0.00000  Uiso   1.00
H664   H     0.00000   0.48317   0.59839   0.00000  Uiso   1.00
O665   O     0.46559   0.04942   0.83404   0.00000  Uiso   1.00
O666   O     0.52051   0.09444   0.78732   0.00000  Uiso   1.00
C667   C     0.49496   0.08506   0.82310   0.00000  Uiso   1.00
O668   O     0.53441   0.95058   0.83404   0.00000  Uiso   1.00
O669   O     0.47949   0.90556   0.78733   0.00000  Uiso   1.00
C670   C     0.50504   0.91494   0.82310   0.00000  Uiso   1.00
O671   O     0.58383   0.04942   0.83404   0.00000  Uiso   1.00
O672   O     0.57393   0.09444   0.78733   0.00000  Uiso   1.00
C673   C     0.59010   0.08506   0.82310   0.00000  Uiso   1.00
O674   O     0.41617   0.95058   0.83404   0.00000  Uiso   1.00
O675   O     0.42607   0.90556   0.78732   0.00000  Uiso   1.00
C676   C     0.40990   0.91494   0.82309   0.00000  Uiso   1.00
Zr677  Zr    0.46033   0.00000   0.80596   0.00000  Uiso   1.00
O678   O     0.46356   0.00000   0.87661   0.00000  Uiso   1.00
O679   O     0.41043   0.00000   0.80048   0.00000  Uiso   1.00
Zr680  Zr    0.53967   0.00000   0.80596   0.00000  Uiso   1.00
O681   O     0.53644   0.00000   0.87661   0.00000  Uiso   1.00
O682   O     0.58957   0.00000   0.80048   0.00000  Uiso   1.00
O683   O     0.51669   0.03338   0.81513   0.00000  Uiso   1.00
O684   O     0.48331   0.96663   0.81513   0.00000  Uiso   1.00
O685   O     0.41617   0.95058   0.66596   0.00000  Uiso   1.00
O686   O     0.42607   0.90556   0.71267   0.00000  Uiso   1.00
C687   C     0.40990   0.91494   0.67690   0.00000  Uiso   1.00
O688   O     0.58383   0.04942   0.66596   0.00000  Uiso   1.00
O689   O     0.57393   0.09444   0.71268   0.00000  Uiso   1.00
C690   C     0.59010   0.08506   0.67691   0.00000  Uiso   1.00
O691   O     0.53441   0.95058   0.66596   0.00000  Uiso   1.00
O692   O     0.47949   0.90556   0.71268   0.00000  Uiso   1.00
C693   C     0.50504   0.91494   0.67690   0.00000  Uiso   1.00
O694   O     0.46559   0.04942   0.66596   0.00000  Uiso   1.00
O695   O     0.52052   0.09444   0.71267   0.00000  Uiso   1.00
C696   C     0.49496   0.08506   0.67690   0.00000  Uiso   1.00
Zr697  Zr    0.46033   0.00000   0.69404   0.00000  Uiso   1.00
O698   O     0.46356   0.00000   0.62339   0.00000  Uiso   1.00
O699   O     0.41043   0.00000   0.69952   0.00000  Uiso   1.00
Zr700  Zr    0.53967   0.00000   0.69404   0.00000  Uiso   1.00
O701   O     0.53644   0.00000   0.62339   0.00000  Uiso   1.00
O702   O     0.58957   0.00000   0.69952   0.00000  Uiso   1.00
Zr703  Zr    0.52740   0.05480   0.75000   0.00000  Uiso   1.00
Zr704  Zr    0.47260   0.94520   0.75000   0.00000  Uiso   1.00
O705   O     0.48331   0.96663   0.68487   0.00000  Uiso   1.00
O706   O     0.51669   0.03338   0.68487   0.00000  Uiso   1.00
O707   O     0.43701   0.96633   0.75000   0.00000  Uiso   1.00
O708   O     0.56299   0.03367   0.75000   0.00000  Uiso   1.00
O709   O     0.47068   0.03367   0.75000   0.00000  Uiso   1.00
O710   O     0.52932   0.96633   0.75000   0.00000  Uiso   1.00
H711   H     0.47526   0.95053   0.84683   0.00000  Uiso   1.00
H712   H     0.59338   0.05035   0.75000   0.00000  Uiso   1.00
H713   H     0.47526   0.95053   0.65317   0.00000  Uiso   1.00
H714   H     0.45696   0.05035   0.75000   0.00000  Uiso   1.00
H715   H     0.60671   0.00002   0.77207   0.00000  Uiso   1.00
H716   H     0.60926   0.99988   0.72429   0.00000  Uiso   1.00
H717   H     0.51863   0.00012   0.59590   0.00000  Uiso   1.00
H718   H     0.48029   0.00003   0.59448   0.00000  Uiso   1.00
H719   H     0.39573   0.99996   0.73055   0.00000  Uiso   1.00
H720   H     0.39637   0.00012   0.76893   0.00000  Uiso   1.00
H721   H     0.48715   0.99989   0.89324   0.00000  Uiso   1.00
H722   H     0.51683  -0.00000   0.90161   0.00000  Uiso   1.00
O723   O     0.46559   0.41617   0.66596   0.00000  Uiso   1.00
O724   O     0.52051   0.42607   0.71268   0.00000  Uiso   1.00
C725   C     0.49496   0.40990   0.67691   0.00000  Uiso   1.00
O726   O     0.53441   0.58383   0.66596   0.00000  Uiso   1.00
O727   O     0.47949   0.57393   0.71267   0.00000  Uiso   1.00
C728   C     0.50504   0.59010   0.67690   0.00000  Uiso   1.00
O729   O     0.58383   0.53441   0.66596   0.00000  Uiso   1.00
O730   O     0.57393   0.47949   0.71267   0.00000  Uiso   1.00
C731   C     0.59010   0.50504   0.67690   0.00000  Uiso   1.00
O732   O     0.41617   0.46559   0.66596   0.00000  Uiso   1.00
O733   O     0.42607   0.52051   0.71268   0.00000  Uiso   1.00
C734   C     0.40990   0.49496   0.67691   0.00000  Uiso   1.00
Zr735  Zr    0.46033   0.46033   0.69404   0.00000  Uiso   1.00
O736   O     0.46356   0.46356   0.62339   0.00000  Uiso   1.00
O737   O     0.41043   0.41043   0.69952   0.00000  Uiso   1.00
Zr738  Zr    0.53967   0.53967   0.69404   0.00000  Uiso   1.00
O739   O     0.53644   0.53644   0.62339   0.00000  Uiso   1.00
O740   O     0.58957   0.58957   0.69952   0.00000  Uiso   1.00
O741   O     0.51669   0.48331   0.68487   0.00000  Uiso   1.00
O742   O     0.48331   0.51669   0.68487   0.00000  Uiso   1.00
O743   O     0.41617   0.46559   0.83404   0.00000  Uiso   1.00
O744   O     0.42607   0.52051   0.78733   0.00000  Uiso   1.00
C745   C     0.40990   0.49496   0.82310   0.00000  Uiso   1.00
O746   O     0.58383   0.53441   0.83404   0.00000  Uiso   1.00
O747   O     0.57393   0.47949   0.78732   0.00000  Uiso   1.00
C748   C     0.59010   0.50504   0.82309   0.00000  Uiso   1.00
O749   O     0.53441   0.58383   0.83404   0.00000  Uiso   1.00
O750   O     0.47949   0.57393   0.78732   0.00000  Uiso   1.00
C751   C     0.50504   0.59010   0.82309   0.00000  Uiso   1.00
O752   O     0.46559   0.41617   0.83404   0.00000  Uiso   1.00
O753   O     0.52051   0.42607   0.78733   0.00000  Uiso   1.00
C754   C     0.49496   0.40990   0.82310   0.00000  Uiso   1.00
Zr755  Zr    0.46033   0.46033   0.80596   0.00000  Uiso   1.00
O756   O     0.46356   0.46356   0.87661   0.00000  Uiso   1.00
O757   O     0.41043   0.41043   0.80048   0.00000  Uiso   1.00
Zr758  Zr    0.53967   0.53967   0.80596   0.00000  Uiso   1.00
O759   O     0.53644   0.53644   0.87661   0.00000  Uiso   1.00
O760   O     0.58957   0.58957   0.80048   0.00000  Uiso   1.00
Zr761  Zr    0.52740   0.47260   0.75000   0.00000  Uiso   1.00
Zr762  Zr    0.47260   0.52740   0.75000   0.00000  Uiso   1.00
O763   O     0.48331   0.51669   0.81513   0.00000  Uiso   1.00
O764   O     0.51669   0.48331   0.81513   0.00000  Uiso   1.00
O765   O     0.43701   0.47068   0.75000   0.00000  Uiso   1.00
O766   O     0.56299   0.52932   0.75000   0.00000  Uiso   1.00
O767   O     0.47068   0.43701   0.75000   0.00000  Uiso   1.00
O768   O     0.52932   0.56299   0.75000   0.00000  Uiso   1.00
H769   H     0.47526   0.52474   0.65317   0.00000  Uiso   1.00
H770   H     0.59338   0.54304   0.75000   0.00000  Uiso   1.00
H771   H     0.47526   0.52474   0.84683   0.00000  Uiso   1.00
H772   H     0.45696   0.40662   0.75000   0.00000  Uiso   1.00
H773   H     0.60671   0.60669   0.72793   0.00000  Uiso   1.00
H774   H     0.60926   0.60938   0.77571   0.00000  Uiso   1.00
H775   H     0.51863   0.51851   0.90410   0.00000  Uiso   1.00
H776   H     0.48029   0.48026   0.90552   0.00000  Uiso   1.00
H777   H     0.39573   0.39577   0.76945   0.00000  Uiso   1.00
H778   H     0.39637   0.39624   0.73107   0.00000  Uiso   1.00
H779   H     0.48715   0.48725   0.60676   0.00000  Uiso   1.00
H780   H     0.51683   0.51683   0.59839   0.00000  Uiso   1.00
C781   C     0.13277   0.48452   0.55968   0.00000  Uiso   1.00
C782   C     0.17207   0.50000   0.57793   0.00000  Uiso   1.00
C783   C     0.18145   0.51548   0.62610   0.00000  Uiso   1.00
C784   C     0.15154   0.51548   0.65601   0.00000  Uiso   1.00
C785   C     0.11224   0.50000   0.63776   0.00000  Uiso   1.00
C786   C     0.10286   0.48452   0.58959   0.00000  Uiso   1.00
H787   H     0.12583   0.47307   0.52403   0.00000  Uiso   1.00
H788   H     0.21053   0.52693   0.63961   0.00000  Uiso   1.00
H789   H     0.15848   0.52693   0.69166   0.00000  Uiso   1.00
H790   H     0.07378   0.47307   0.57608   0.00000  Uiso   1.00
C791   C     0.13277   0.48452   0.94032   0.00000  Uiso   1.00
C792   C     0.17207   0.50000   0.92207   0.00000  Uiso   1.00
C793   C     0.18145   0.51548   0.87390   0.00000  Uiso   1.00
C794   C     0.15154   0.51548   0.84399   0.00000  Uiso   1.00
C795   C     0.11224   0.50000   0.86224   0.00000  Uiso   1.00
C796   C     0.10286   0.48452   0.91041   0.00000  Uiso   1.00
H797   H     0.12583   0.47307   0.97597   0.00000  Uiso   1.00
H798   H     0.21053   0.52693   0.86039   0.00000  Uiso   1.00
H799   H     0.15848   0.52693   0.80834   0.00000  Uiso   1.00
H800   H     0.07378   0.47307   0.92392   0.00000  Uiso   1.00
C801   C     0.32846   0.46406   0.58581   0.00000  Uiso   1.00
C802   C     0.32793   0.50000   0.57793   0.00000  Uiso   1.00
C803   C     0.35732   0.53594   0.59997   0.00000  Uiso   1.00
C804   C     0.38723   0.53594   0.62988   0.00000  Uiso   1.00
C805   C     0.38776   0.50000   0.63776   0.00000  Uiso   1.00
C806   C     0.35837   0.46406   0.61572   0.00000  Uiso   1.00
H807   H     0.30670   0.43745   0.56950   0.00000  Uiso   1.00
H808   H     0.35693   0.56255   0.59414   0.00000  Uiso   1.00
H809   H     0.40898   0.56255   0.64619   0.00000  Uiso   1.00
H810   H     0.35875   0.43745   0.62155   0.00000  Uiso   1.00
C811   C     0.33055   0.46488   0.91754   0.00000  Uiso   1.00
C812   C     0.32793   0.50000   0.92207   0.00000  Uiso   1.00
C813   C     0.35523   0.53512   0.89668   0.00000  Uiso   1.00
C814   C     0.38514   0.53512   0.86677   0.00000  Uiso   1.00
C815   C     0.38776   0.50000   0.86224   0.00000  Uiso   1.00
C816   C     0.36046   0.46488   0.88763   0.00000  Uiso   1.00
H817   H     0.31034   0.43889   0.93634   0.00000  Uiso   1.00
H818   H     0.35330   0.56111   0.90003   0.00000  Uiso   1.00
H819   H     0.40535   0.56111   0.84798   0.00000  Uiso   1.00
H820   H     0.36239   0.43889   0.88428   0.00000  Uiso   1.00
C821   C     0.52953   0.18271   0.61457   0.00000  Uiso   1.00
C822   C     0.50000   0.17207   0.57793   0.00000  Uiso   1.00
C823   C     0.47047   0.13151   0.57121   0.00000  Uiso   1.00
C824   C     0.47047   0.10160   0.60112   0.00000  Uiso   1.00
C825   C     0.50000   0.11225   0.63776   0.00000  Uiso   1.00
C826   C     0.52953   0.15280   0.64448   0.00000  Uiso   1.00
H827   H     0.55139   0.21274   0.61955   0.00000  Uiso   1.00
H828   H     0.44861   0.12363   0.54409   0.00000  Uiso   1.00
H829   H     0.44861   0.07158   0.59614   0.00000  Uiso   1.00
H830   H     0.55139   0.16068   0.67160   0.00000  Uiso   1.00
C831   C     0.50180   0.17630   0.87052   0.00000  Uiso   1.00
C832   C     0.50000   0.17207   0.92207   0.00000  Uiso   1.00
C833   C     0.49820   0.13792   0.94371   0.00000  Uiso   1.00
C834   C     0.49820   0.10801   0.91380   0.00000  Uiso   1.00
C835   C     0.50000   0.11225   0.86224   0.00000  Uiso   1.00
C836   C     0.50180   0.14639   0.84061   0.00000  Uiso   1.00
H837   H     0.50313   0.20158   0.85450   0.00000  Uiso   1.00
H838   H     0.49687   0.13479   0.98186   0.00000  Uiso   1.00
H839   H     0.49687   0.08273   0.92981   0.00000  Uiso   1.00
H840   H     0.50313   0.14953   0.80245   0.00000  Uiso   1.00
C841   C     0.53395   0.35299   0.60664   0.00000  Uiso   1.00
C842   C     0.50000   0.32793   0.57793   0.00000  Uiso   1.00
C843   C     0.46605   0.33278   0.57914   0.00000  Uiso   1.00
C844   C     0.46605   0.36270   0.60905   0.00000  Uiso   1.00
C845   C     0.50000   0.38776   0.63776   0.00000  Uiso   1.00
C846   C     0.53395   0.38290   0.63655   0.00000  Uiso   1.00
H847   H     0.55909   0.34940   0.60575   0.00000  Uiso   1.00
H848   H     0.44091   0.31424   0.55789   0.00000  Uiso   1.00
H849   H     0.44091   0.36629   0.60994   0.00000  Uiso   1.00
H850   H     0.55909   0.40145   0.65780   0.00000  Uiso   1.00
C851   C     0.52773   0.34479   0.88317   0.00000  Uiso   1.00
C852   C     0.50000   0.32793   0.92207   0.00000  Uiso   1.00
C853   C     0.47227   0.34099   0.93105   0.00000  Uiso   1.00
C854   C     0.47227   0.37090   0.90114   0.00000  Uiso   1.00
C855   C     0.50000   0.38776   0.86224   0.00000  Uiso   1.00
C856   C     0.52773   0.37470   0.85326   0.00000  Uiso   1.00
H857   H     0.54826   0.33512   0.87652   0.00000  Uiso   1.00
H858   H     0.45174   0.32851   0.95984   0.00000  Uiso   1.00
H859   H     0.45174   0.38056   0.90779   0.00000  Uiso   1.00
H860   H     0.54826   0.38718   0.82447   0.00000  Uiso   1.00
C861   C     0.17543   0.63880   0.59289   0.00000  Uiso   1.00
C862   C     0.17207   0.67207   0.57793   0.00000  Uiso   1.00
C863   C     0.13880   0.67543   0.59289   0.00000  Uiso   1.00
C864   C     0.10889   0.64552   0.62280   0.00000  Uiso   1.00
C865   C     0.11224   0.61225   0.63776   0.00000  Uiso   1.00
C866   C     0.14552   0.60888   0.62280   0.00000  Uiso   1.00
H867   H     0.20006   0.63631   0.58182   0.00000  Uiso   1.00
H868   H     0.13631   0.70006   0.58182   0.00000  Uiso   1.00
H869   H     0.08425   0.64800   0.63387   0.00000  Uiso   1.00
H870   H     0.14800   0.58426   0.63387   0.00000  Uiso   1.00
C871   C     0.17543   0.63880   0.90711   0.00000  Uiso   1.00
C872   C     0.17207   0.67207   0.92207   0.00000  Uiso   1.00
C873   C     0.13880   0.67543   0.90711   0.00000  Uiso   1.00
C874   C     0.10889   0.64552   0.87720   0.00000  Uiso   1.00
C875   C     0.11224   0.61225   0.86224   0.00000  Uiso   1.00
C876   C     0.14552   0.60888   0.87720   0.00000  Uiso   1.00
H877   H     0.20006   0.63631   0.91818   0.00000  Uiso   1.00
H878   H     0.13631   0.70006   0.91818   0.00000  Uiso   1.00
H879   H     0.08425   0.64800   0.86613   0.00000  Uiso   1.00
H880   H     0.14800   0.58426   0.86613   0.00000  Uiso   1.00
C881   C     0.85920   0.32277   0.59670   0.00000  Uiso   1.00
C882   C     0.82793   0.32793   0.57793   0.00000  Uiso   1.00
C883   C     0.82658   0.36301   0.58907   0.00000  Uiso   1.00
C884   C     0.85649   0.39292   0.61899   0.00000  Uiso   1.00
C885   C     0.88775   0.38776   0.63776   0.00000  Uiso   1.00
C886   C     0.88911   0.35268   0.62661   0.00000  Uiso   1.00
H887   H     0.86020   0.29680   0.58845   0.00000  Uiso   1.00
H888   H     0.80344   0.36684   0.57518   0.00000  Uiso   1.00
H889   H     0.85549   0.41889   0.62723   0.00000  Uiso   1.00
H890   H     0.91225   0.34885   0.64051   0.00000  Uiso   1.00
C891   C     0.83055   0.46488   0.58246   0.00000  Uiso   1.00
C892   C     0.82793   0.50000   0.57793   0.00000  Uiso   1.00
C893   C     0.85523   0.53512   0.60332   0.00000  Uiso   1.00
C894   C     0.88514   0.53512   0.63323   0.00000  Uiso   1.00
C895   C     0.88775   0.50000   0.63776   0.00000  Uiso   1.00
C896   C     0.86046   0.46488   0.61237   0.00000  Uiso   1.00
H897   H     0.81034   0.43889   0.56366   0.00000  Uiso   1.00
H898   H     0.85330   0.56111   0.59997   0.00000  Uiso   1.00
H899   H     0.90535   0.56111   0.65202   0.00000  Uiso   1.00
H900   H     0.86239   0.43889   0.61572   0.00000  Uiso   1.00
C901   C     0.85920   0.32277   0.90330   0.00000  Uiso   1.00
C902   C     0.82793   0.32793   0.92207   0.00000  Uiso   1.00
C903   C     0.82658   0.36301   0.91093   0.00000  Uiso   1.00
C904   C     0.85649   0.39292   0.88101   0.00000  Uiso   1.00
C905   C     0.88775   0.38776   0.86224   0.00000  Uiso   1.00
C906   C     0.88911   0.35268   0.87339   0.00000  Uiso   1.00
H907   H     0.86020   0.29680   0.91155   0.00000  Uiso   1.00
H908   H     0.80344   0.36684   0.92482   0.00000  Uiso   1.00
H909   H     0.85549   0.41889   0.87277   0.00000  Uiso   1.00
H910   H     0.91225   0.34885   0.85949   0.00000  Uiso   1.00
C911   C     0.83055   0.46488   0.91754   0.00000  Uiso   1.00
C912   C     0.82793   0.50000   0.92207   0.00000  Uiso   1.00
C913   C     0.85523   0.53512   0.89668   0.00000  Uiso   1.00
C914   C     0.88514   0.53512   0.86677   0.00000  Uiso   1.00
C915   C     0.88775   0.50000   0.86224   0.00000  Uiso   1.00
C916   C     0.86046   0.46488   0.88763   0.00000  Uiso   1.00
H917   H     0.81034   0.43889   0.93634   0.00000  Uiso   1.00
H918   H     0.85330   0.56111   0.90003   0.00000  Uiso   1.00
H919   H     0.90535   0.56111   0.84798   0.00000  Uiso   1.00
H920   H     0.86239   0.43889   0.88428   0.00000  Uiso   1.00
C921   C     0.36530   0.82990   0.58346   0.00000  Uiso   1.00
C922   C     0.32793   0.82793   0.57793   0.00000  Uiso   1.00
C923   C     0.32048   0.85587   0.60232   0.00000  Uiso   1.00
C924   C     0.35039   0.88578   0.63223   0.00000  Uiso   1.00
C925   C     0.38776   0.88775   0.63776   0.00000  Uiso   1.00
C926   C     0.39521   0.85981   0.61337   0.00000  Uiso   1.00
H927   H     0.37082   0.80922   0.56541   0.00000  Uiso   1.00
H928   H     0.29282   0.85442   0.59823   0.00000  Uiso   1.00
H929   H     0.34487   0.90647   0.65028   0.00000  Uiso   1.00
H930   H     0.42287   0.86127   0.61746   0.00000  Uiso   1.00
C931   C     0.46338   0.82511   0.59182   0.00000  Uiso   1.00
C932   C     0.50000   0.82793   0.57793   0.00000  Uiso   1.00
C933   C     0.53662   0.86066   0.59396   0.00000  Uiso   1.00
C934   C     0.53662   0.89057   0.62387   0.00000  Uiso   1.00
C935   C     0.50000   0.88775   0.63776   0.00000  Uiso   1.00
C936   C     0.46338   0.85503   0.62173   0.00000  Uiso   1.00
H937   H     0.43628   0.80089   0.57996   0.00000  Uiso   1.00
H938   H     0.56372   0.86275   0.58368   0.00000  Uiso   1.00
H939   H     0.56372   0.91480   0.63573   0.00000  Uiso   1.00
H940   H     0.43628   0.85294   0.63201   0.00000  Uiso   1.00
C941   C     0.64243   0.17845   0.59955   0.00000  Uiso   1.00
C942   C     0.67207   0.17207   0.57793   0.00000  Uiso   1.00
C943   C     0.67179   0.13577   0.58622   0.00000  Uiso   1.00
C944   C     0.64188   0.10586   0.61613   0.00000  Uiso   1.00
C945   C     0.61225   0.11225   0.63776   0.00000  Uiso   1.00
C946   C     0.61252   0.14854   0.62946   0.00000  Uiso   1.00
H947   H     0.64264   0.20532   0.59342   0.00000  Uiso   1.00
H948   H     0.69373   0.13104   0.57022   0.00000  Uiso   1.00
H949   H     0.64167   0.07899   0.62227   0.00000  Uiso   1.00
H950   H     0.59059   0.15327   0.64547   0.00000  Uiso   1.00
C951   C     0.36530   0.82990   0.91654   0.00000  Uiso   1.00
C952   C     0.32793   0.82793   0.92207   0.00000  Uiso   1.00
C953   C     0.32048   0.85587   0.89768   0.00000  Uiso   1.00
C954   C     0.35039   0.88578   0.86777   0.00000  Uiso   1.00
C955   C     0.38776   0.88775   0.86224   0.00000  Uiso   1.00
C956   C     0.39521   0.85981   0.88663   0.00000  Uiso   1.00
H957   H     0.37082   0.80922   0.93459   0.00000  Uiso   1.00
H958   H     0.29282   0.85442   0.90177   0.00000  Uiso   1.00
H959   H     0.34487   0.90647   0.84972   0.00000  Uiso   1.00
H960   H     0.42287   0.86127   0.88254   0.00000  Uiso   1.00
C961   C     0.53425   0.85351   0.89410   0.00000  Uiso   1.00
C962   C     0.50000   0.82793   0.92207   0.00000  Uiso   1.00
C963   C     0.46575   0.83227   0.92012   0.00000  Uiso   1.00
C964   C     0.46575   0.86218   0.89021   0.00000  Uiso   1.00
C965   C     0.50000   0.88775   0.86224   0.00000  Uiso   1.00
C966   C     0.53425   0.88342   0.86419   0.00000  Uiso   1.00
H967   H     0.55960   0.85030   0.89555   0.00000  Uiso   1.00
H968   H     0.44041   0.81334   0.94082   0.00000  Uiso   1.00
H969   H     0.44040   0.86539   0.88877   0.00000  Uiso   1.00
H970   H     0.55959   0.90235   0.84350   0.00000  Uiso   1.00
C971   C     0.67543   0.13880   0.90711   0.00000  Uiso   1.00
C972   C     0.67207   0.17207   0.92207   0.00000  Uiso   1.00
C973   C     0.63880   0.17543   0.90711   0.00000  Uiso   1.00
C974   C     0.60888   0.14552   0.87720   0.00000  Uiso   1.00
C975   C     0.61225   0.11225   0.86224   0.00000  Uiso   1.00
C976   C     0.64552   0.10888   0.87720   0.00000  Uiso   1.00
H977   H     0.70006   0.13631   0.91818   0.00000  Uiso   1.00
H978   H     0.63631   0.20006   0.91818   0.00000  Uiso   1.00
H979   H     0.58425   0.14800   0.86613   0.00000  Uiso   1.00
H980   H     0.64800   0.08426   0.86613   0.00000  Uiso   1.00
C981   C     0.51960   0.68238   0.62384   0.00000  Uiso   1.00
C982   C     0.50000   0.67207   0.57793   0.00000  Uiso   1.00
C983   C     0.48041   0.63184   0.56193   0.00000  Uiso   1.00
C984   C     0.48041   0.60193   0.59184   0.00000  Uiso   1.00
C985   C     0.50000   0.61225   0.63776   0.00000  Uiso   1.00
C986   C     0.51960   0.65247   0.65376   0.00000  Uiso   1.00
H987   H     0.53410   0.71216   0.63569   0.00000  Uiso   1.00
H988   H     0.46590   0.62420   0.52795   0.00000  Uiso   1.00
H989   H     0.46590   0.57215   0.58000   0.00000  Uiso   1.00
H990   H     0.53410   0.66011   0.68774   0.00000  Uiso   1.00
C991   C     0.48041   0.63184   0.93807   0.00000  Uiso   1.00
C992   C     0.50000   0.67207   0.92207   0.00000  Uiso   1.00
C993   C     0.51960   0.68238   0.87616   0.00000  Uiso   1.00
C994   C     0.51960   0.65247   0.84624   0.00000  Uiso   1.00
C995   C     0.50000   0.61225   0.86224   0.00000  Uiso   1.00
C996   C     0.48041   0.60193   0.90816   0.00000  Uiso   1.00
H997   H     0.46590   0.62420   0.97205   0.00000  Uiso   1.00
H998   H     0.53410   0.71216   0.86431   0.00000  Uiso   1.00
H999   H     0.53410   0.66011   0.81226   0.00000  Uiso   1.00
H1000  H     0.46590   0.57215   0.92000   0.00000  Uiso   1.00
C1001  C     0.63184   0.48040   0.56193   0.00000  Uiso   1.00
C1002  C     0.67207   0.50000   0.57793   0.00000  Uiso   1.00
C1003  C     0.68238   0.51960   0.62384   0.00000  Uiso   1.00
C1004  C     0.65247   0.51960   0.65375   0.00000  Uiso   1.00
C1005  C     0.61225   0.50000   0.63776   0.00000  Uiso   1.00
C1006  C     0.60193   0.48040   0.59184   0.00000  Uiso   1.00
H1007  H     0.62420   0.46590   0.52795   0.00000  Uiso   1.00
H1008  H     0.71216   0.53410   0.63569   0.00000  Uiso   1.00
H1009  H     0.66011   0.53410   0.68774   0.00000  Uiso   1.00
H1010  H     0.57215   0.46590   0.58000   0.00000  Uiso   1.00
C1011  C     0.63277   0.48452   0.94032   0.00000  Uiso   1.00
C1012  C     0.67207   0.50000   0.92207   0.00000  Uiso   1.00
C1013  C     0.68145   0.51548   0.87390   0.00000  Uiso   1.00
C1014  C     0.65154   0.51548   0.84399   0.00000  Uiso   1.00
C1015  C     0.61225   0.50000   0.86224   0.00000  Uiso   1.00
C1016  C     0.60286   0.48452   0.91041   0.00000  Uiso   1.00
H1017  H     0.62583   0.47307   0.97597   0.00000  Uiso   1.00
H1018  H     0.71053   0.52693   0.86039   0.00000  Uiso   1.00
H1019  H     0.65848   0.52693   0.80834   0.00000  Uiso   1.00
H1020  H     0.57378   0.47307   0.92392   0.00000  Uiso   1.00
loop_
_geom_bond_atom_site_label_1
_geom_bond_atom_site_label_2
_geom_bond_distance
_geom_bond_site_symmetry_2
_ccdc_geom_bond_type
O1     Cu9     1.951   .     S
O1     C11     1.250   .     A
O2     Cu519   1.951   .     S
O2     C12     1.250   .     A
O3     Cu519   1.951   .     S
O3     C13     1.250   .     A
O4     Cu9     1.951   .     S
O4     C14     1.250   .     A
O5     Cu10    1.951   .     S
O5     C14     1.250   .     A
O6     Cu520   1.951   .     S
O6     C13     1.251   .     A
O7     Cu520   1.951   .     S
O7     C12     1.250   .     A
O8     Cu10    1.951   .     S
O8     C11     1.250   .     A
Cu9    O512    1.951   1_554 S
Cu9    O513    1.951   1_554 S
Cu9    Cu10    2.630   .     S
Cu9    O525    1.950   1_554 S
Cu10   O516    1.951   1_554 S
Cu10   O517    1.951   1_554 S
Cu10   O16     1.950   .     S
C11    C292    1.594   .     S
C12    C282    1.594   .     S
C13    C302    1.594   .     S
C14    C272    1.594   .     S
O15    Cu519   1.950   .     S
O17    Cu25    1.951   .     S
O17    C27     1.250   .     A
O18    Cu535   1.951   .     S
O18    C28     1.250   .     A
O19    Cu535   1.951   .     S
O19    C29     1.250   .     A
O20    Cu25    1.951   .     S
O20    C30     1.250   .     A
O21    Cu26    1.951   .     S
O21    C30     1.250   .     A
O22    Cu536   1.951   .     S
O22    C29     1.251   .     A
O23    Cu536   1.951   .     S
O23    C28     1.250   .     A
O24    Cu26    1.951   .     S
O24    C27     1.250   .     A
Cu25   O528    1.951   1_554 S
Cu25   O529    1.951   1_554 S
Cu25   Cu26    2.630   .     S
Cu25   O541    1.950   1_554 S
Cu26   O532    1.951   1_554 S
Cu26   O533    1.951   1_554 S
Cu26   O32     1.950   .     S
C27    C332    1.594   .     S
C28    C322    1.594   .     S
C29    C342    1.594   .     S
C30    C312    1.594   .     S
O31    Cu535   1.950   .     S
O33    Cu551   1.951   .     S
O33    C43     1.250   .     A
O34    Cu41    1.951   .     S
O34    C44     1.250   .     A
O35    Cu41    1.951   .     S
O35    C45     1.250   .     A
O36    Cu551   1.951   .     S
O36    C46     1.250   .     A
O37    Cu552   1.951   .     S
O37    C46     1.250   .     A
O38    Cu42    1.951   .     S
O38    C45     1.251   .     A
O39    Cu42    1.951   .     S
O39    C44     1.250   .     A
O40    Cu552   1.951   .     S
O40    C43     1.250   .     A
Cu41   O543    1.951   1_554 S
Cu41   O546    1.951   1_554 S
Cu41   Cu42    2.630   .     S
Cu41   O47     1.950   .     S
Cu42   O547    1.951   1_554 S
Cu42   O550    1.951   1_554 S
Cu42   O558    1.950   1_554 S
C43    C362    1.594   .     S
C44    C412    1.594   .     S
C45    C352    1.594   .     S
C46    C442    1.594   .     S
O48    Cu552   1.950   .     S
O49    Cu567   1.951   .     S
O49    C59     1.250   .     A
O50    Cu57    1.951   .     S
O50    C60     1.250   .     A
O51    Cu57    1.951   .     S
O51    C61     1.250   .     A
O52    Cu567   1.951   .     S
O52    C62     1.250   .     A
O53    Cu568   1.951   .     S
O53    C62     1.250   .     A
O54    Cu58    1.951   .     S
O54    C61     1.251   .     A
O55    Cu58    1.951   .     S
O55    C60     1.250   .     A
O56    Cu568   1.951   .     S
O56    C59     1.250   .     A
Cu57   O559    1.951   1_554 S
Cu57   O562    1.951   1_554 S
Cu57   Cu58    2.630   .     S
Cu57   O63     1.950   .     S
Cu58   O563    1.951   1_554 S
Cu58   O566    1.951   1_554 S
Cu58   O574    1.950   1_554 S
C59    C462    1.594   .     S
C60    C372    1.594   .     S
C61    C432    1.594   .     A
C62    C392    1.594   .     S
O64    Cu568   1.950   .     S
O65    Cu73    1.951   .     S
O65    C75     1.250   .     A
O66    Cu583   1.951   .     S
O66    C76     1.250   .     A
O67    Cu583   1.951   .     S
O67    C77     1.250   .     A
O68    Cu73    1.951   .     S
O68    C78     1.250   .     A
O69    Cu74    1.951   .     S
O69    C78     1.250   .     A
O70    Cu584   1.951   .     S
O70    C77     1.251   .     A
O71    Cu584   1.951   .     S
O71    C76     1.250   .     A
O72    Cu74    1.951   .     S
O72    C75     1.250   .     A
Cu73   O576    1.951   1_554 S
Cu73   O577    1.951   1_554 S
Cu73   Cu74    2.630   .     S
Cu73   O589    1.950   1_554 S
Cu74   O580    1.951   1_554 S
Cu74   O581    1.951   1_554 S
Cu74   O80     1.950   .     S
C75    C422    1.594   .     A
C76    C482    1.594   .     S
C77    C452    1.594   .     A
C78    C472    1.594   .     A
O79    Cu583   1.950   .     S
O81    Cu599   1.951   .     S
O81    C91     1.250   .     A
O82    Cu89    1.951   .     S
O82    C92     1.250   .     A
O83    Cu89    1.951   .     S
O83    C93     1.250   .     A
O84    Cu599   1.951   .     S
O84    C94     1.250   .     A
O85    Cu600   1.951   .     S
O85    C94     1.250   .     A
O86    Cu90    1.951   .     S
O86    C93     1.251   .     A
O87    Cu90    1.951   .     S
O87    C92     1.250   .     A
O88    Cu600   1.951   .     S
O88    C91     1.250   .     A
Cu89   O591    1.951   1_554 S
Cu89   O594    1.951   1_554 S
Cu89   Cu90    2.630   .     S
Cu89   O95     1.950   .     S
Cu90   O595    1.951   1_554 S
Cu90   O598    1.951   1_554 S
Cu90   O606    1.950   1_554 S
C91    C402    1.594   .     S
C92    C492    1.594   .     A
C93    C382    1.594   .     S
C94    C502    1.594   .     S
O96    Cu600   1.950   .     S
O97    Zr109   2.145   1_655 S
O97    C99     1.423   .     D
O98    Zr135   2.139   .     S
O98    C99     1.420   .     S
C99    C385    1.569   .     S
O100   Zr112   2.146   .     S
O100   C102    1.423   .     S
O101   Zr136   2.139   .     S
O101   C102    1.420   .     D
C102   C275    1.569   .     S
O103   Zr112   2.145   1_655 S
O103   C105    1.423   .     S
O104   Zr135   2.139   .     S
O104   C105    1.420   .     D
C105   C375    1.569   .     S
O106   Zr109   2.145   .     S
O106   C108    1.423   .     D
O107   Zr136   2.139   .     S
O107   C108    1.420   .     S
C108   C355    1.569   .     S
Zr109  O97     2.145   1_455 S
Zr109  Zr135   3.087   1_455 S
Zr109  Zr136   3.087   .     S
Zr109  O110    2.104   .     S
Zr109  O111    2.104   .     S
Zr109  O115    2.082   1_455 S
Zr109  O116    2.082   .     S
Zr109  O139    2.084   .     S
Zr109  O141    2.084   1_455 S
O110   H153    1.110   .     S
O111   H152    1.110   1_455 S
Zr112  O103    2.145   1_455 S
Zr112  Zr136   3.087   .     S
Zr112  Zr135   3.087   1_455 S
Zr112  O113    2.104   .     S
Zr112  O114    2.104   .     S
Zr112  O116    2.082   .     S
Zr112  O115    2.082   1_455 S
Zr112  O140    2.084   1_455 S
Zr112  O142    2.084   .     S
O113   H154    1.110   .     S
O114   H147    1.110   1_455 S
O115   Zr109   2.082   1_655 S
O115   Zr112   2.082   1_655 S
O115   Zr135   2.087   .     S
O116   Zr136   2.087   .     S
O116   H143    1.110   .     S
O117   Zr129   2.146   .     S
O117   C119    1.423   .     D
O118   Zr136   2.139   .     S
O118   C119    1.420   .     S
C119   C365    1.569   .     S
O120   Zr132   2.145   1_655 S
O120   C122    1.423   .     S
O121   Zr135   2.139   .     S
O121   C122    1.420   .     D
C122   C395    1.569   .     S
O123   Zr132   2.145   .     S
O123   C125    1.423   .     S
O124   Zr136   2.139   .     S
O124   C125    1.420   .     D
C125   C285    1.569   .     S
O126   Zr129   2.145   1_655 S
O126   C128    1.423   .     D
O127   Zr135   2.139   .     S
O127   C128    1.420   .     S
C128   C405    1.569   .     S
Zr129  O126    2.145   1_455 S
Zr129  Zr136   3.087   .     S
Zr129  Zr135   3.087   1_455 S
Zr129  O130    2.104   .     S
Zr129  O131    2.104   .     S
Zr129  O137    2.081   .     S
Zr129  O138    2.081   1_455 S
Zr129  O141    2.084   1_455 S
Zr129  O139    2.084   .     S
O130   H150    1.110   1_455 S
O131   H151    1.110   .     S
Zr132  O120    2.145   1_455 S
Zr132  Zr135   3.087   1_455 S
Zr132  Zr136   3.087   .     S
Zr132  O133    2.104   .     S
Zr132  O134    2.104   .     S
Zr132  O138    2.082   1_455 S
Zr132  O137    2.082   .     S
Zr132  O142    2.084   .     S
Zr132  O140    2.084   1_455 S
O133   H149    1.110   1_455 S
O134   H148    1.110   .     S
Zr135  Zr109   3.087   1_655 S
Zr135  Zr112   3.087   1_655 S
Zr135  Zr129   3.087   1_655 S
Zr135  Zr132   3.087   1_655 S
Zr135  O138    2.087   .     S
Zr135  O140    2.087   .     S
Zr135  O141    2.087   .     S
Zr136  O137    2.087   .     S
Zr136  O139    2.087   .     S
Zr136  O142    2.087   .     S
O137   H145    1.110   .     S
O138   Zr129   2.081   1_655 S
O138   Zr132   2.082   1_655 S
O140   Zr112   2.084   1_655 S
O140   Zr132   2.084   1_655 S
O140   H144    1.108   .     S
O141   Zr109   2.084   1_655 S
O141   Zr129   2.084   1_655 S
O141   H146    1.108   .     S
H147   O114    1.110   1_655 S
H149   O133    1.110   1_655 S
H150   O130    1.110   1_655 S
H152   O111    1.110   1_655 S
O155   Zr167   2.145   .     S
O155   C157    1.423   .     D
O156   Zr193   2.139   .     S
O156   C157    1.420   .     S
C157   C325    1.569   .     S
O158   Zr170   2.146   1_565 S
O158   C160    1.423   .     S
O159   Zr194   2.139   .     S
O159   C160    1.420   .     D
C160   C455    1.569   .     S
O161   Zr170   2.145   .     S
O161   C163    1.423   .     S
O162   Zr193   2.139   .     S
O162   C163    1.420   .     D
C163   C465    1.569   .     S
O164   Zr167   2.145   1_565 S
O164   C166    1.423   .     D
O165   Zr194   2.139   .     S
O165   C166    1.420   .     S
C166   C445    1.569   .     S
Zr167  O164    2.145   1_545 S
Zr167  Zr193   3.087   .     S
Zr167  Zr194   3.087   1_545 S
Zr167  O168    2.104   .     S
Zr167  O169    2.104   .     S
Zr167  O173    2.082   .     S
Zr167  O174    2.081   1_545 S
Zr167  O197    2.084   1_545 S
Zr167  O199    2.084   .     S
O168   H211    1.110   1_545 S
O169   H210    1.110   .     S
Zr170  O158    2.146   1_545 S
Zr170  Zr194   3.087   1_545 S
Zr170  Zr193   3.087   .     S
Zr170  O171    2.104   .     S
Zr170  O172    2.104   .     S
Zr170  O174    2.082   1_545 S
Zr170  O173    2.081   .     S
Zr170  O198    2.084   .     S
Zr170  O200    2.084   1_545 S
O171   H212    1.110   .     S
O172   H205    1.110   .     S
O173   Zr193   2.087   .     S
O174   Zr167   2.081   1_565 S
O174   Zr170   2.082   1_565 S
O174   Zr194   2.087   .     S
O174   H201    1.110   .     S
O175   Zr187   2.146   1_565 S
O175   C177    1.423   .     D
O176   Zr194   2.139   .     S
O176   C177    1.420   .     S
C177   C415    1.569   .     S
O178   Zr190   2.145   .     S
O178   C180    1.423   .     S
O179   Zr193   2.139   .     S
O179   C180    1.420   .     D
C180   C435    1.569   .     S
O181   Zr190   2.145   1_565 S
O181   C183    1.423   .     S
O182   Zr194   2.139   .     S
O182   C183    1.420   .     D
C183   C425    1.569   .     S
O184   Zr187   2.145   .     S
O184   C186    1.423   .     D
O185   Zr193   2.139   .     S
O185   C186    1.420   .     S
C186   C315    1.569   .     S
Zr187  O175    2.146   1_545 S
Zr187  Zr194   3.087   1_545 S
Zr187  Zr193   3.087   .     S
Zr187  O188    2.104   .     S
Zr187  O189    2.104   .     S
Zr187  O195    2.081   1_545 S
Zr187  O196    2.082   .     S
Zr187  O199    2.084   .     S
Zr187  O197    2.084   1_545 S
O188   H208    1.110   .     S
O189   H209    1.110   1_545 S
Zr190  O181    2.145   1_545 S
Zr190  Zr193   3.087   .     S
Zr190  Zr194   3.087   1_545 S
Zr190  O191    2.104   .     S
Zr190  O192    2.104   .     S
Zr190  O196    2.081   .     S
Zr190  O195    2.082   1_545 S
Zr190  O200    2.084   1_545 S
Zr190  O198    2.084   .     S
O191   H207    1.110   .     S
O192   H206    1.110   1_545 S
Zr193  O196    2.087   .     S
Zr193  O198    2.087   .     S
Zr193  O199    2.087   .     S
Zr194  Zr167   3.087   1_565 S
Zr194  Zr170   3.087   1_565 S
Zr194  Zr187   3.087   1_565 S
Zr194  Zr190   3.087   1_565 S
Zr194  O195    2.087   .     S
Zr194  O197    2.087   .     S
Zr194  O200    2.087   .     S
O195   Zr187   2.081   1_565 S
O195   Zr190   2.082   1_565 S
O195   H203    1.110   .     S
O197   Zr167   2.084   1_565 S
O197   Zr187   2.084   1_565 S
O198   H202    1.108   .     S
O199   H204    1.108   .     S
O200   Zr170   2.084   1_565 S
O200   Zr190   2.084   1_565 S
H206   O192    1.110   1_565 S
H209   O189    1.110   1_565 S
H211   O168    1.110   1_565 S
O213   Zr225   2.145   .     S
O213   C215    1.423   .     D
O214   Zr251   2.139   .     S
O214   C215    1.420   .     S
C215   C335    1.569   .     S
O216   Zr228   2.146   .     S
O216   C218    1.423   .     S
O217   Zr252   2.139   .     S
O217   C218    1.420   .     D
C218   C475    1.569   .     S
O219   Zr228   2.145   .     S
O219   C221    1.423   .     S
O220   Zr251   2.139   .     S
O220   C221    1.420   .     D
C221   C495    1.569   .     S
O222   Zr225   2.145   .     S
O222   C224    1.423   .     D
O223   Zr252   2.139   .     S
O223   C224    1.420   .     S
C224   C295    1.569   .     S
Zr225  Zr251   3.087   .     S
Zr225  Zr252   3.087   .     S
Zr225  O226    2.104   .     S
Zr225  O227    2.104   .     S
Zr225  O231    2.082   .     S
Zr225  O232    2.082   .     S
Zr225  O255    2.084   .     S
Zr225  O257    2.084   .     S
O226   H269    1.110   .     S
O227   H268    1.110   .     S
Zr228  Zr252   3.087   .     S
Zr228  Zr251   3.087   .     S
Zr228  O229    2.104   .     S
Zr228  O230    2.104   .     S
Zr228  O232    2.082   .     S
Zr228  O231    2.081   .     S
Zr228  O256    2.084   .     S
Zr228  O258    2.084   .     S
O229   H270    1.110   .     S
O230   H263    1.110   .     S
O231   Zr251   2.087   .     S
O232   Zr252   2.087   .     S
O232   H259    1.110   .     S
O233   Zr245   2.146   .     S
O233   C235    1.423   .     D
O234   Zr252   2.139   .     S
O234   C235    1.420   .     S
C235   C305    1.569   .     S
O236   Zr248   2.145   .     S
O236   C238    1.423   .     S
O237   Zr251   2.139   .     S
O237   C238    1.420   .     D
C238   C505    1.569   .     S
O239   Zr248   2.145   .     S
O239   C241    1.423   .     S
O240   Zr252   2.139   .     S
O240   C241    1.420   .     D
C241   C485    1.569   .     S
O242   Zr245   2.145   .     S
O242   C244    1.423   .     D
O243   Zr251   2.139   .     S
O243   C244    1.420   .     S
C244   C345    1.569   .     S
Zr245  Zr252   3.087   .     S
Zr245  Zr251   3.087   .     S
Zr245  O246    2.104   .     S
Zr245  O247    2.104   .     S
Zr245  O253    2.082   .     S
Zr245  O254    2.081   .     S
Zr245  O257    2.084   .     S
Zr245  O255    2.084   .     S
O246   H266    1.110   .     S
O247   H267    1.110   .     S
Zr248  Zr251   3.087   .     S
Zr248  Zr252   3.087   .     S
Zr248  O249    2.104   .     S
Zr248  O250    2.104   .     S
Zr248  O254    2.082   .     S
Zr248  O253    2.082   .     S
Zr248  O258    2.084   .     S
Zr248  O256    2.084   .     S
O249   H265    1.110   .     S
O250   H264    1.110   .     S
Zr251  O254    2.087   .     S
Zr251  O256    2.087   .     S
Zr251  O257    2.087   .     S
Zr252  O253    2.087   .     S
Zr252  O255    2.087   .     S
Zr252  O258    2.087   .     S
O253   H261    1.110   .     S
O256   H260    1.108   .     S
O257   H262    1.108   .     S
C271   C272    1.540   .     A
C271   C276    1.540   .     A
C271   H277    1.140   .     S
C272   C273    1.540   .     A
C273   C274    1.540   .     A
C273   H278    1.140   .     S
C274   C275    1.540   .     A
C274   H279    1.140   .     S
C275   C276    1.540   .     A
C276   H280    1.140   .     S
C281   C282    1.540   .     A
C281   C286    1.540   .     A
C281   H287    1.140   .     S
C282   C283    1.540   .     A
C283   C284    1.540   .     A
C283   H288    1.140   .     S
C284   C285    1.540   .     A
C284   H289    1.140   .     S
C285   C286    1.540   .     A
C286   H290    1.140   .     S
C291   C292    1.540   .     A
C291   C296    1.540   .     A
C291   H297    1.140   .     S
C292   C293    1.540   .     A
C293   C294    1.540   .     A
C293   H298    1.140   .     S
C294   C295    1.540   .     A
C294   H299    1.140   .     S
C295   C296    1.540   .     A
C296   H300    1.140   .     S
C301   C302    1.540   .     A
C301   C306    1.540   .     A
C301   H307    1.140   .     S
C302   C303    1.540   .     A
C303   C304    1.540   .     A
C303   H308    1.140   .     S
C304   C305    1.540   .     A
C304   H309    1.140   .     S
C305   C306    1.540   .     A
C306   H310    1.140   .     S
C311   C312    1.540   .     A
C311   C316    1.540   .     A
C311   H317    1.140   .     S
C312   C313    1.540   .     A
C313   C314    1.540   .     A
C313   H318    1.140   .     S
C314   C315    1.540   .     A
C314   H319    1.140   .     S
C315   C316    1.540   .     A
C316   H320    1.140   .     S
C321   C322    1.540   .     A
C321   C326    1.540   .     A
C321   H327    1.140   .     S
C322   C323    1.540   .     A
C323   C324    1.540   .     A
C323   H328    1.140   .     S
C324   C325    1.540   .     A
C324   H329    1.140   .     S
C325   C326    1.540   .     A
C326   H330    1.140   .     S
C331   C332    1.540   .     A
C331   C336    1.540   .     A
C331   H337    1.140   .     S
C332   C333    1.540   .     A
C333   C334    1.540   .     A
C333   H338    1.140   .     S
C334   C335    1.540   .     A
C334   H339    1.140   .     S
C335   C336    1.540   .     A
C336   H340    1.140   .     S
C341   C342    1.540   .     A
C341   C346    1.540   .     A
C341   H347    1.140   .     S
C342   C343    1.540   .     A
C343   C344    1.540   .     A
C343   H348    1.140   .     S
C344   C345    1.540   .     A
C344   H349    1.140   .     S
C345   C346    1.540   .     A
C346   H350    1.140   .     S
C351   C352    1.540   .     A
C351   C356    1.540   .     A
C351   H357    1.140   .     S
C352   C353    1.540   .     A
C353   C354    1.540   .     A
C353   H358    1.140   .     S
C354   C355    1.540   .     A
C354   H359    1.140   .     S
C355   C356    1.540   .     A
C356   H360    1.140   .     S
C361   C362    1.540   .     A
C361   C366    1.540   .     A
C361   H367    1.140   .     S
C362   C363    1.540   .     A
C363   C364    1.540   .     A
C363   H368    1.140   .     S
C364   C365    1.540   .     A
C364   H369    1.140   .     S
C365   C366    1.540   .     A
C366   H370    1.140   .     S
C371   C372    1.540   .     A
C371   C376    1.540   .     A
C371   H377    1.140   .     S
C372   C373    1.540   .     A
C373   C374    1.540   .     A
C373   H378    1.140   .     S
C374   C375    1.540   .     A
C374   H379    1.140   .     S
C375   C376    1.540   .     A
C376   H380    1.140   .     S
C381   C382    1.540   .     A
C381   C386    1.540   .     A
C381   H387    1.140   .     S
C382   C383    1.540   .     A
C383   C384    1.540   .     A
C383   H388    1.140   .     S
C384   C385    1.540   .     A
C384   H389    1.140   .     S
C385   C386    1.540   .     A
C386   H390    1.140   .     S
C391   C392    1.540   .     A
C391   C396    1.540   .     A
C391   H397    1.140   .     S
C392   C393    1.540   .     A
C393   C394    1.540   .     A
C393   H398    1.140   .     S
C394   C395    1.540   .     A
C394   H399    1.140   .     S
C395   C396    1.540   .     A
C396   H400    1.140   .     S
C401   C402    1.540   .     A
C401   C406    1.540   .     A
C401   H407    1.140   .     S
C402   C403    1.540   .     A
C403   C404    1.540   .     A
C403   H408    1.140   .     S
C404   C405    1.540   .     A
C404   H409    1.140   .     S
C405   C406    1.540   .     A
C406   H410    1.140   .     S
C411   C412    1.540   .     A
C411   C416    1.540   .     A
C411   H417    1.140   .     S
C412   C413    1.540   .     A
C413   C414    1.540   .     A
C413   H418    1.140   .     S
C414   C415    1.540   .     A
C414   H419    1.140   .     S
C415   C416    1.540   .     A
C416   H420    1.140   .     S
C421   C422    1.540   .     A
C421   C426    1.540   .     A
C421   H427    1.140   .     S
C422   C423    1.540   .     A
C423   C424    1.540   .     A
C423   H428    1.140   .     S
C424   C425    1.540   .     A
C424   H429    1.140   .     S
C425   C426    1.540   .     A
C426   H430    1.140   .     S
C431   C432    1.540   .     A
C431   C436    1.540   .     A
C431   H437    1.140   .     S
C432   C433    1.540   .     A
C433   C434    1.540   .     A
C433   H438    1.140   .     S
C434   C435    1.540   .     A
C434   H439    1.140   .     S
C435   C436    1.540   .     A
C436   H440    1.140   .     S
C441   C442    1.540   .     A
C441   C446    1.540   .     A
C441   H447    1.140   .     S
C442   C443    1.540   .     A
C443   C444    1.540   .     A
C443   H448    1.140   .     S
C444   C445    1.540   .     A
C444   H449    1.140   .     S
C445   C446    1.540   .     A
C446   H450    1.140   .     S
C451   C452    1.540   .     A
C451   C456    1.540   .     A
C451   H457    1.140   .     S
C452   C453    1.540   .     A
C453   C454    1.540   .     A
C453   H458    1.140   .     S
C454   C455    1.540   .     A
C454   H459    1.140   .     S
C455   C456    1.540   .     A
C456   H460    1.140   .     S
C461   C462    1.540   .     A
C461   C466    1.540   .     A
C461   H467    1.140   .     S
C462   C463    1.540   .     A
C463   C464    1.540   .     A
C463   H468    1.140   .     S
C464   C465    1.540   .     A
C464   H469    1.140   .     S
C465   C466    1.540   .     A
C466   H470    1.140   .     S
C471   C472    1.540   .     A
C471   C476    1.540   .     A
C471   H477    1.140   .     S
C472   C473    1.540   .     A
C473   C474    1.540   .     A
C473   H478    1.140   .     S
C474   C475    1.540   .     A
C474   H479    1.140   .     S
C475   C476    1.540   .     A
C476   H480    1.140   .     S
C481   C482    1.540   .     A
C481   C486    1.540   .     A
C481   H487    1.140   .     S
C482   C483    1.540   .     A
C483   C484    1.540   .     A
C483   H488    1.140   .     S
C484   C485    1.540   .     A
C484   H489    1.140   .     S
C485   C486    1.540   .     A
C486   H490    1.140   .     S
C491   C492    1.540   .     A
C491   C496    1.540   .     A
C491   H497    1.140   .     S
C492   C493    1.540   .     A
C493   C494    1.540   .     A
C493   H498    1.140   .     S
C494   C495    1.540   .     A
C494   H499    1.140   .     S
C495   C496    1.540   .     A
C496   H500    1.140   .     S
C501   C502    1.540   .     A
C501   C506    1.540   .     A
C501   H507    1.140   .     S
C502   C503    1.540   .     A
C503   C504    1.540   .     A
C503   H508    1.140   .     S
C504   C505    1.540   .     A
C504   H509    1.140   .     S
C505   C506    1.540   .     A
C506   H510    1.140   .     S
O511   Cu519   1.951   .     S
O511   C521    1.250   .     A
O512   Cu9     1.951   1_556 S
O512   C522    1.250   .     A
O513   Cu9     1.951   1_556 S
O513   C523    1.250   .     A
O514   Cu519   1.951   .     S
O514   C524    1.250   .     A
O515   Cu520   1.951   .     S
O515   C524    1.250   .     A
O516   Cu10    1.951   1_556 S
O516   C523    1.251   .     A
O517   Cu10    1.951   1_556 S
O517   C522    1.250   .     A
O518   Cu520   1.951   .     S
O518   C521    1.250   .     A
Cu519  Cu520   2.630   .     S
Cu520  O526    1.950   .     S
C521   C802    1.594   .     S
C522   C792    1.594   .     S
C523   C812    1.594   .     S
C524   C782    1.594   .     S
O525   Cu9     1.950   1_556 S
O527   Cu535   1.951   .     S
O527   C537    1.250   .     A
O528   Cu25    1.951   1_556 S
O528   C538    1.250   .     A
O529   Cu25    1.951   1_556 S
O529   C539    1.250   .     A
O530   Cu535   1.951   .     S
O530   C540    1.250   .     A
O531   Cu536   1.951   .     S
O531   C540    1.250   .     A
O532   Cu26    1.951   1_556 S
O532   C539    1.251   .     A
O533   Cu26    1.951   1_556 S
O533   C538    1.250   .     A
O534   Cu536   1.951   .     S
O534   C537    1.250   .     A
Cu535  Cu536   2.630   .     S
Cu536  O542    1.950   .     S
C537   C842    1.594   .     S
C538   C832    1.594   .     S
C539   C852    1.594   .     S
C540   C822    1.594   .     S
O541   Cu25    1.950   1_556 S
O543   Cu41    1.951   1_556 S
O543   C553    1.250   .     A
O544   Cu551   1.951   .     S
O544   C554    1.250   .     A
O545   Cu551   1.951   .     S
O545   C555    1.250   .     A
O546   Cu41    1.951   1_556 S
O546   C556    1.250   .     A
O547   Cu42    1.951   1_556 S
O547   C556    1.250   .     A
O548   Cu552   1.951   .     S
O548   C555    1.251   .     A
O549   Cu552   1.951   .     S
O549   C554    1.250   .     A
O550   Cu42    1.951   1_556 S
O550   C553    1.250   .     A
Cu551  Cu552   2.630   .     S
Cu551  O557    1.950   .     S
C553   C872    1.594   .     S
C554   C922    1.594   .     S
C555   C862    1.594   .     S
C556   C952    1.594   .     S
O558   Cu42    1.950   1_556 S
O559   Cu57    1.951   1_556 S
O559   C569    1.250   .     A
O560   Cu567   1.951   .     S
O560   C570    1.250   .     A
O561   Cu567   1.951   .     S
O561   C571    1.250   .     A
O562   Cu57    1.951   1_556 S
O562   C572    1.250   .     A
O563   Cu58    1.951   1_556 S
O563   C572    1.250   .     A
O564   Cu568   1.951   .     S
O564   C571    1.251   .     A
O565   Cu568   1.951   .     S
O565   C570    1.250   .     A
O566   Cu58    1.951   1_556 S
O566   C569    1.250   .     A
Cu567  Cu568   2.630   .     S
Cu567  O573    1.950   .     S
C569   C972    1.594   .     S
C570   C882    1.594   .     S
C571   C942    1.594   .     A
C572   C902    1.594   .     S
O574   Cu58    1.950   1_556 S
O575   Cu583   1.951   .     S
O575   C585    1.250   .     A
O576   Cu73    1.951   1_556 S
O576   C586    1.250   .     A
O577   Cu73    1.951   1_556 S
O577   C587    1.250   .     A
O578   Cu583   1.951   .     S
O578   C588    1.250   .     A
O579   Cu584   1.951   .     S
O579   C588    1.250   .     A
O580   Cu74    1.951   1_556 S
O580   C587    1.251   .     A
O581   Cu74    1.951   1_556 S
O581   C586    1.250   .     A
O582   Cu584   1.951   .     S
O582   C585    1.250   .     A
Cu583  Cu584   2.630   .     S
Cu584  O590    1.950   .     S
C585   C932    1.594   .     A
C586   C992    1.594   .     S
C587   C962    1.594   .     A
C588   C982    1.594   .     A
O589   Cu73    1.950   1_556 S
O591   Cu89    1.951   1_556 S
O591   C601    1.250   .     A
O592   Cu599   1.951   .     S
O592   C602    1.250   .     A
O593   Cu599   1.951   .     S
O593   C603    1.250   .     A
O594   Cu89    1.951   1_556 S
O594   C604    1.250   .     A
O595   Cu90    1.951   1_556 S
O595   C604    1.250   .     A
O596   Cu600   1.951   .     S
O596   C603    1.251   .     A
O597   Cu600   1.951   .     S
O597   C602    1.250   .     A
O598   Cu90    1.951   1_556 S
O598   C601    1.250   .     A
Cu599  Cu600   2.630   .     S
Cu599  O605    1.950   .     S
C601   C912    1.594   .     S
C602   C1002   1.594   .     A
C603   C892    1.594   .     S
C604   C1012   1.594   .     S
O606   Cu90    1.950   1_556 S
O607   Zr619   2.145   1_655 S
O607   C609    1.423   .     D
O608   Zr645   2.139   .     S
O608   C609    1.420   .     S
C609   C895    1.569   .     S
O610   Zr622   2.146   .     S
O610   C612    1.423   .     S
O611   Zr646   2.139   .     S
O611   C612    1.420   .     D
C612   C785    1.569   .     S
O613   Zr622   2.145   1_655 S
O613   C615    1.423   .     S
O614   Zr645   2.139   .     S
O614   C615    1.420   .     D
C615   C885    1.569   .     S
O616   Zr619   2.145   .     S
O616   C618    1.423   .     D
O617   Zr646   2.139   .     S
O617   C618    1.420   .     S
C618   C865    1.569   .     S
Zr619  O607    2.145   1_455 S
Zr619  Zr645   3.087   1_455 S
Zr619  Zr646   3.087   .     S
Zr619  O620    2.104   .     S
Zr619  O621    2.104   .     S
Zr619  O625    2.082   1_455 S
Zr619  O626    2.082   .     S
Zr619  O649    2.084   .     S
Zr619  O651    2.084   1_455 S
O620   H663    1.110   .     S
O621   H662    1.110   1_455 S
Zr622  O613    2.145   1_455 S
Zr622  Zr646   3.087   .     S
Zr622  Zr645   3.087   1_455 S
Zr622  O623    2.104   .     S
Zr622  O624    2.104   .     S
Zr622  O626    2.082   .     S
Zr622  O625    2.082   1_455 S
Zr622  O650    2.084   1_455 S
Zr622  O652    2.084   .     S
O623   H664    1.110   .     S
O624   H657    1.110   1_455 S
O625   Zr619   2.082   1_655 S
O625   Zr622   2.082   1_655 S
O625   Zr645   2.087   .     S
O626   Zr646   2.087   .     S
O626   H653    1.110   .     S
O627   Zr639   2.146   .     S
O627   C629    1.423   .     D
O628   Zr646   2.139   .     S
O628   C629    1.420   .     S
C629   C875    1.569   .     S
O630   Zr642   2.145   1_655 S
O630   C632    1.423   .     S
O631   Zr645   2.139   .     S
O631   C632    1.420   .     D
C632   C905    1.569   .     S
O633   Zr642   2.145   .     S
O633   C635    1.423   .     S
O634   Zr646   2.139   .     S
O634   C635    1.420   .     D
C635   C795    1.569   .     S
O636   Zr639   2.145   1_655 S
O636   C638    1.423   .     D
O637   Zr645   2.139   .     S
O637   C638    1.420   .     S
C638   C915    1.569   .     S
Zr639  O636    2.145   1_455 S
Zr639  Zr646   3.087   .     S
Zr639  Zr645   3.087   1_455 S
Zr639  O640    2.104   .     S
Zr639  O641    2.104   .     S
Zr639  O647    2.081   .     S
Zr639  O648    2.081   1_455 S
Zr639  O651    2.084   1_455 S
Zr639  O649    2.084   .     S
O640   H660    1.110   1_455 S
O641   H661    1.110   .     S
Zr642  O630    2.145   1_455 S
Zr642  Zr645   3.087   1_455 S
Zr642  Zr646   3.087   .     S
Zr642  O643    2.104   .     S
Zr642  O644    2.104   .     S
Zr642  O648    2.082   1_455 S
Zr642  O647    2.082   .     S
Zr642  O652    2.084   .     S
Zr642  O650    2.084   1_455 S
O643   H659    1.110   1_455 S
O644   H658    1.110   .     S
Zr645  Zr619   3.087   1_655 S
Zr645  Zr622   3.087   1_655 S
Zr645  Zr639   3.087   1_655 S
Zr645  Zr642   3.087   1_655 S
Zr645  O648    2.087   .     S
Zr645  O650    2.087   .     S
Zr645  O651    2.087   .     S
Zr646  O647    2.087   .     S
Zr646  O649    2.087   .     S
Zr646  O652    2.087   .     S
O647   H655    1.110   .     S
O648   Zr639   2.081   1_655 S
O648   Zr642   2.082   1_655 S
O650   Zr622   2.084   1_655 S
O650   Zr642   2.084   1_655 S
O650   H654    1.108   .     S
O651   Zr619   2.084   1_655 S
O651   Zr639   2.084   1_655 S
O651   H656    1.108   .     S
H657   O624    1.110   1_655 S
H659   O643    1.110   1_655 S
H660   O640    1.110   1_655 S
H662   O621    1.110   1_655 S
O665   Zr677   2.145   .     S
O665   C667    1.423   .     D
O666   Zr703   2.139   .     S
O666   C667    1.420   .     S
C667   C835    1.569   .     S
O668   Zr680   2.146   1_565 S
O668   C670    1.423   .     S
O669   Zr704   2.139   .     S
O669   C670    1.420   .     D
C670   C965    1.569   .     S
O671   Zr680   2.145   .     S
O671   C673    1.423   .     S
O672   Zr703   2.139   .     S
O672   C673    1.420   .     D
C673   C975    1.569   .     S
O674   Zr677   2.145   1_565 S
O674   C676    1.423   .     D
O675   Zr704   2.139   .     S
O675   C676    1.420   .     S
C676   C955    1.569   .     S
Zr677  O674    2.145   1_545 S
Zr677  Zr703   3.087   .     S
Zr677  Zr704   3.087   1_545 S
Zr677  O678    2.104   .     S
Zr677  O679    2.104   .     S
Zr677  O683    2.082   .     S
Zr677  O684    2.081   1_545 S
Zr677  O707    2.084   1_545 S
Zr677  O709    2.084   .     S
O678   H721    1.110   1_545 S
O679   H720    1.110   .     S
Zr680  O668    2.146   1_545 S
Zr680  Zr704   3.087   1_545 S
Zr680  Zr703   3.087   .     S
Zr680  O681    2.104   .     S
Zr680  O682    2.104   .     S
Zr680  O684    2.082   1_545 S
Zr680  O683    2.081   .     S
Zr680  O708    2.084   .     S
Zr680  O710    2.084   1_545 S
O681   H722    1.110   .     S
O682   H715    1.110   .     S
O683   Zr703   2.087   .     S
O684   Zr677   2.081   1_565 S
O684   Zr680   2.082   1_565 S
O684   Zr704   2.087   .     S
O684   H711    1.110   .     S
O685   Zr697   2.146   1_565 S
O685   C687    1.423   .     D
O686   Zr704   2.139   .     S
O686   C687    1.420   .     S
C687   C925    1.569   .     S
O688   Zr700   2.145   .     S
O688   C690    1.423   .     S
O689   Zr703   2.139   .     S
O689   C690    1.420   .     D
C690   C945    1.569   .     S
O691   Zr700   2.145   1_565 S
O691   C693    1.423   .     S
O692   Zr704   2.139   .     S
O692   C693    1.420   .     D
C693   C935    1.569   .     S
O694   Zr697   2.145   .     S
O694   C696    1.423   .     D
O695   Zr703   2.139   .     S
O695   C696    1.420   .     S
C696   C825    1.569   .     S
Zr697  O685    2.146   1_545 S
Zr697  Zr704   3.087   1_545 S
Zr697  Zr703   3.087   .     S
Zr697  O698    2.104   .     S
Zr697  O699    2.104   .     S
Zr697  O705    2.081   1_545 S
Zr697  O706    2.082   .     S
Zr697  O709    2.084   .     S
Zr697  O707    2.084   1_545 S
O698   H718    1.110   .     S
O699   H719    1.110   1_545 S
Zr700  O691    2.145   1_545 S
Zr700  Zr703   3.087   .     S
Zr700  Zr704   3.087   1_545 S
Zr700  O701    2.104   .     S
Zr700  O702    2.104   .     S
Zr700  O706    2.081   .     S
Zr700  O705    2.082   1_545 S
Zr700  O710    2.084   1_545 S
Zr700  O708    2.084   .     S
O701   H717    1.110   .     S
O702   H716    1.110   1_545 S
Zr703  O706    2.087   .     S
Zr703  O708    2.087   .     S
Zr703  O709    2.087   .     S
Zr704  Zr677   3.087   1_565 S
Zr704  Zr680   3.087   1_565 S
Zr704  Zr697   3.087   1_565 S
Zr704  Zr700   3.087   1_565 S
Zr704  O705    2.087   .     S
Zr704  O707    2.087   .     S
Zr704  O710    2.087   .     S
O705   Zr697   2.081   1_565 S
O705   Zr700   2.082   1_565 S
O705   H713    1.110   .     S
O707   Zr677   2.084   1_565 S
O707   Zr697   2.084   1_565 S
O708   H712    1.108   .     S
O709   H714    1.108   .     S
O710   Zr680   2.084   1_565 S
O710   Zr700   2.084   1_565 S
H716   O702    1.110   1_565 S
H719   O699    1.110   1_565 S
H721   O678    1.110   1_565 S
O723   Zr735   2.145   .     S
O723   C725    1.423   .     D
O724   Zr761   2.139   .     S
O724   C725    1.420   .     S
C725   C845    1.569   .     S
O726   Zr738   2.146   .     S
O726   C728    1.423   .     S
O727   Zr762   2.139   .     S
O727   C728    1.420   .     D
C728   C985    1.569   .     S
O729   Zr738   2.145   .     S
O729   C731    1.423   .     S
O730   Zr761   2.139   .     S
O730   C731    1.420   .     D
C731   C1005   1.569   .     S
O732   Zr735   2.145   .     S
O732   C734    1.423   .     D
O733   Zr762   2.139   .     S
O733   C734    1.420   .     S
C734   C805    1.569   .     S
Zr735  Zr761   3.087   .     S
Zr735  Zr762   3.087   .     S
Zr735  O736    2.104   .     S
Zr735  O737    2.104   .     S
Zr735  O741    2.082   .     S
Zr735  O742    2.082   .     S
Zr735  O765    2.084   .     S
Zr735  O767    2.084   .     S
O736   H779    1.110   .     S
O737   H778    1.110   .     S
Zr738  Zr762   3.087   .     S
Zr738  Zr761   3.087   .     S
Zr738  O739    2.104   .     S
Zr738  O740    2.104   .     S
Zr738  O742    2.082   .     S
Zr738  O741    2.081   .     S
Zr738  O766    2.084   .     S
Zr738  O768    2.084   .     S
O739   H780    1.110   .     S
O740   H773    1.110   .     S
O741   Zr761   2.087   .     S
O742   Zr762   2.087   .     S
O742   H769    1.110   .     S
O743   Zr755   2.146   .     S
O743   C745    1.423   .     D
O744   Zr762   2.139   .     S
O744   C745    1.420   .     S
C745   C815    1.569   .     S
O746   Zr758   2.145   .     S
O746   C748    1.423   .     S
O747   Zr761   2.139   .     S
O747   C748    1.420   .     D
C748   C1015   1.569   .     S
O749   Zr758   2.145   .     S
O749   C751    1.423   .     S
O750   Zr762   2.139   .     S
O750   C751    1.420   .     D
C751   C995    1.569   .     S
O752   Zr755   2.145   .     S
O752   C754    1.423   .     D
O753   Zr761   2.139   .     S
O753   C754    1.420   .     S
C754   C855    1.569   .     S
Zr755  Zr762   3.087   .     S
Zr755  Zr761   3.087   .     S
Zr755  O756    2.104   .     S
Zr755  O757    2.104   .     S
Zr755  O763    2.082   .     S
Zr755  O764    2.081   .     S
Zr755  O767    2.084   .     S
Zr755  O765    2.084   .     S
O756   H776    1.110   .     S
O757   H777    1.110   .     S
Zr758  Zr761   3.087   .     S
Zr758  Zr762   3.087   .     S
Zr758  O759    2.104   .     S
Zr758  O760    2.104   .     S
Zr758  O764    2.082   .     S
Zr758  O763    2.082   .     S
Zr758  O768    2.084   .     S
Zr758  O766    2.084   .     S
O759   H775    1.110   .     S
O760   H774    1.110   .     S
Zr761  O764    2.087   .     S
Zr761  O766    2.087   .     S
Zr761  O767    2.087   .     S
Zr762  O763    2.087   .     S
Zr762  O765    2.087   .     S
Zr762  O768    2.087   .     S
O763   H771    1.110   .     S
O766   H770    1.108   .     S
O767   H772    1.108   .     S
C781   C782    1.540   .     A
C781   C786    1.540   .     A
C781   H787    1.140   .     S
C782   C783    1.540   .     A
C783   C784    1.540   .     A
C783   H788    1.140   .     S
C784   C785    1.540   .     A
C784   H789    1.140   .     S
C785   C786    1.540   .     A
C786   H790    1.140   .     S
C791   C792    1.540   .     A
C791   C796    1.540   .     A
C791   H797    1.140   .     S
C792   C793    1.540   .     A
C793   C794    1.540   .     A
C793   H798    1.140   .     S
C794   C795    1.540   .     A
C794   H799    1.140   .     S
C795   C796    1.540   .     A
C796   H800    1.140   .     S
C801   C802    1.540   .     A
C801   C806    1.540   .     A
C801   H807    1.140   .     S
C802   C803    1.540   .     A
C803   C804    1.540   .     A
C803   H808    1.140   .     S
C804   C805    1.540   .     A
C804   H809    1.140   .     S
C805   C806    1.540   .     A
C806   H810    1.140   .     S
C811   C812    1.540   .     A
C811   C816    1.540   .     A
C811   H817    1.140   .     S
C812   C813    1.540   .     A
C813   C814    1.540   .     A
C813   H818    1.140   .     S
C814   C815    1.540   .     A
C814   H819    1.140   .     S
C815   C816    1.540   .     A
C816   H820    1.140   .     S
C821   C822    1.540   .     A
C821   C826    1.540   .     A
C821   H827    1.140   .     S
C822   C823    1.540   .     A
C823   C824    1.540   .     A
C823   H828    1.140   .     S
C824   C825    1.540   .     A
C824   H829    1.140   .     S
C825   C826    1.540   .     A
C826   H830    1.140   .     S
C831   C832    1.540   .     A
C831   C836    1.540   .     A
C831   H837    1.140   .     S
C832   C833    1.540   .     A
C833   C834    1.540   .     A
C833   H838    1.140   .     S
C834   C835    1.540   .     A
C834   H839    1.140   .     S
C835   C836    1.540   .     A
C836   H840    1.140   .     S
C841   C842    1.540   .     A
C841   C846    1.540   .     A
C841   H847    1.140   .     S
C842   C843    1.540   .     A
C843   C844    1.540   .     A
C843   H848    1.140   .     S
C844   C845    1.540   .     A
C844   H849    1.140   .     S
C845   C846    1.540   .     A
C846   H850    1.140   .     S
C851   C852    1.540   .     A
C851   C856    1.540   .     A
C851   H857    1.140   .     S
C852   C853    1.540   .     A
C853   C854    1.540   .     A
C853   H858    1.140   .     S
C854   C855    1.540   .     A
C854   H859    1.140   .     S
C855   C856    1.540   .     A
C856   H860    1.140   .     S
C861   C862    1.540   .     A
C861   C866    1.540   .     A
C861   H867    1.140   .     S
C862   C863    1.540   .     A
C863   C864    1.540   .     A
C863   H868    1.140   .     S
C864   C865    1.540   .     A
C864   H869    1.140   .     S
C865   C866    1.540   .     A
C866   H870    1.140   .     S
C871   C872    1.540   .     A
C871   C876    1.540   .     A
C871   H877    1.140   .     S
C872   C873    1.540   .     A
C873   C874    1.540   .     A
C873   H878    1.140   .     S
C874   C875    1.540   .     A
C874   H879    1.140   .     S
C875   C876    1.540   .     A
C876   H880    1.140   .     S
C881   C882    1.540   .     A
C881   C886    1.540   .     A
C881   H887    1.140   .     S
C882   C883    1.540   .     A
C883   C884    1.540   .     A
C883   H888    1.140   .     S
C884   C885    1.540   .     A
C884   H889    1.140   .     S
C885   C886    1.540   .     A
C886   H890    1.140   .     S
C891   C892    1.540   .     A
C891   C896    1.540   .     A
C891   H897    1.140   .     S
C892   C893    1.540   .     A
C893   C894    1.540   .     A
C893   H898    1.140   .     S
C894   C895    1.540   .     A
C894   H899    1.140   .     S
C895   C896    1.540   .     A
C896   H900    1.140   .     S
C901   C902    1.540   .     A
C901   C906    1.540   .     A
C901   H907    1.140   .     S
C902   C903    1.540   .     A
C903   C904    1.540   .     A
C903   H908    1.140   .     S
C904   C905    1.540   .     A
C904   H909    1.140   .     S
C905   C906    1.540   .     A
C906   H910    1.140   .     S
C911   C912    1.540   .     A
C911   C916    1.540   .     A
C911   H917    1.140   .     S
C912   C913    1.540   .     A
C913   C914    1.540   .     A
C913   H918    1.140   .     S
C914   C915    1.540   .     A
C914   H919    1.140   .     S
C915   C916    1.540   .     A
C916   H920    1.140   .     S
C921   C922    1.540   .     A
C921   C926    1.540   .     A
C921   H927    1.140   .     S
C922   C923    1.540   .     A
C923   C924    1.540   .     A
C923   H928    1.140   .     S
C924   C925    1.540   .     A
C924   H929    1.140   .     S
C925   C926    1.540   .     A
C926   H930    1.140   .     S
C931   C932    1.540   .     A
C931   C936    1.540   .     A
C931   H937    1.140   .     S
C932   C933    1.540   .     A
C933   C934    1.540   .     A
C933   H938    1.140   .     S
C934   C935    1.540   .     A
C934   H939    1.140   .     S
C935   C936    1.540   .     A
C936   H940    1.140   .     S
C941   C942    1.540   .     A
C941   C946    1.540   .     A
C941   H947    1.140   .     S
C942   C943    1.540   .     A
C943   C944    1.540   .     A
C943   H948    1.140   .     S
C944   C945    1.540   .     A
C944   H949    1.140   .     S
C945   C946    1.540   .     A
C946   H950    1.140   .     S
C951   C952    1.540   .     A
C951   C956    1.540   .     A
C951   H957    1.140   .     S
C952   C953    1.540   .     A
C953   C954    1.540   .     A
C953   H958    1.140   .     S
C954   C955    1.540   .     A
C954   H959    1.140   .     S
C955   C956    1.540   .     A
C956   H960    1.140   .     S
C961   C962    1.540   .     A
C961   C966    1.540   .     A
C961   H967    1.140   .     S
C962   C963    1.540   .     A
C963   C964    1.540   .     A
C963   H968    1.140   .     S
C964   C965    1.540   .     A
C964   H969    1.140   .     S
C965   C966    1.540   .     A
C966   H970    1.140   .     S
C971   C972    1.540   .     A
C971   C976    1.540   .     A
C971   H977    1.140   .     S
C972   C973    1.540   .     A
C973   C974    1.540   .     A
C973   H978    1.140   .     S
C974   C975    1.540   .     A
C974   H979    1.140   .     S
C975   C976    1.540   .     A
C976   H980    1.140   .     S
C981   C982    1.540   .     A
C981   C986    1.540   .     A
C981   H987    1.140   .     S
C982   C983    1.540   .     A
C983   C984    1.540   .     A
C983   H988    1.140   .     S
C984   C985    1.540   .     A
C984   H989    1.140   .     S
C985   C986    1.540   .     A
C986   H990    1.140   .     S
C991   C992    1.540   .     A
C991   C996    1.540   .     A
C991   H997    1.140   .     S
C992   C993    1.540   .     A
C993   C994    1.540   .     A
C993   H998    1.140   .     S
C994   C995    1.540   .     A
C994   H999    1.140   .     S
C995   C996    1.540   .     A
C996   H1000   1.140   .     S
C1001  C1002   1.540   .     A
C1001  C1006   1.540   .     A
C1001  H1007   1.140   .     S
C1002  C1003   1.540   .     A
C1003  C1004   1.540   .     A
C1003  H1008   1.140   .     S
C1004  C1005   1.540   .     A
C1004  H1009   1.140   .     S
C1005  C1006   1.540   .     A
C1006  H1010   1.140   .     S
C1011  C1012   1.540   .     A
C1011  C1016   1.540   .     A
C1011  H1017   1.140   .     S
C1012  C1013   1.540   .     A
C1013  C1014   1.540   .     A
C1013  H1018   1.140   .     S
C1014  C1015   1.540   .     A
C1014  H1019   1.140   .     S
C1015  C1016   1.540   .     A
C1016  H1020   1.140   .     S
