data_orig_mol
_audit_creation_date              2017-01-17
_audit_creation_method            'Materials Studio'
_symmetry_space_group_name_H-M    'P1'
_symmetry_Int_Tables_number       1
_symmetry_cell_setting            triclinic
loop_
_symmetry_equiv_pos_as_xyz
  x,y,z
_cell_length_a                    39.9700
_cell_length_b                    40.0000
_cell_length_c                    33.1600
_cell_angle_alpha                 90.0000
_cell_angle_beta                  90.0000
_cell_angle_gamma                 120.0000
loop_
_atom_site_label
_atom_site_type_symbol
_atom_site_fract_x
_atom_site_fract_y
_atom_site_fract_z
_atom_site_U_iso_or_equiv
_atom_site_adp_type
_atom_site_occupancy
C1     C     0.48232   0.83626   0.41686   0.00000  Uiso   1.00
C2     C     0.51988   0.16457   0.41505   0.00000  Uiso   1.00
C3     C     0.35383   0.83638   0.41649   0.00000  Uiso   1.00
C4     C     0.64356   0.16356   0.41396   0.00000  Uiso   1.00
C5     C     0.51013   0.87489   0.40938   0.00000  Uiso   1.00
C6     C     0.49329   0.12575   0.40657   0.00000  Uiso   1.00
C7     C     0.36518   0.87506   0.40838   0.00000  Uiso   1.00
C8     C     0.63222   0.12494   0.40573   0.00000  Uiso   1.00
C9     C     0.53578   0.88346   0.37708   0.00000  Uiso   1.00
C10    C     0.46629   0.11703   0.37554   0.00000  Uiso   1.00
C11    C     0.34687   0.88332   0.37702   0.00000  Uiso   1.00
C12    C     0.65065   0.11668   0.37452   0.00000  Uiso   1.00
C13    C     0.53340   0.85410   0.35250   0.00000  Uiso   1.00
C14    C     0.46645   0.14644   0.35298   0.00000  Uiso   1.00
C15    C     0.31862   0.85376   0.35368   0.00000  Uiso   1.00
C16    C     0.67917   0.14633   0.35145   0.00000  Uiso   1.00
C17    C     0.50551   0.81522   0.35968   0.00000  Uiso   1.00
C18    C     0.49367   0.18544   0.36059   0.00000  Uiso   1.00
C19    C     0.30759   0.81487   0.36107   0.00000  Uiso   1.00
C20    C     0.69029   0.18518   0.35904   0.00000  Uiso   1.00
C21    C     0.48018   0.80693   0.39249   0.00000  Uiso   1.00
C22    C     0.51994   0.19390   0.39249   0.00000  Uiso   1.00
C23    C     0.32542   0.80685   0.39327   0.00000  Uiso   1.00
C24    C     0.67226   0.19321   0.39110   0.00000  Uiso   1.00
C25    C     0.51990   0.16348   0.08561   0.00000  Uiso   1.00
C26    C     0.48273   0.83629   0.08338   0.00000  Uiso   1.00
C27    C     0.64491   0.16466   0.08465   0.00000  Uiso   1.00
C28    C     0.35341   0.83595   0.08293   0.00000  Uiso   1.00
C29    C     0.49261   0.12488   0.09397   0.00000  Uiso   1.00
C30    C     0.51008   0.87495   0.09161   0.00000  Uiso   1.00
C31    C     0.63258   0.12586   0.09330   0.00000  Uiso   1.00
C32    C     0.36430   0.87460   0.09056   0.00000  Uiso   1.00
C33    C     0.46591   0.11662   0.12521   0.00000  Uiso   1.00
C34    C     0.53670   0.88309   0.12292   0.00000  Uiso   1.00
C35    C     0.65088   0.11714   0.12427   0.00000  Uiso   1.00
C36    C     0.34698   0.88300   0.12280   0.00000  Uiso   1.00
C37    C     0.46712   0.14633   0.14819   0.00000  Uiso   1.00
C38    C     0.53532   0.85344   0.14611   0.00000  Uiso   1.00
C39    C     0.68024   0.14656   0.14674   0.00000  Uiso   1.00
C40    C     0.31994   0.85355   0.14722   0.00000  Uiso   1.00
C41    C     0.49488   0.18513   0.14053   0.00000  Uiso   1.00
C42    C     0.50742   0.81458   0.13866   0.00000  Uiso   1.00
C43    C     0.69212   0.18556   0.13903   0.00000  Uiso   1.00
C44    C     0.30906   0.81470   0.14002   0.00000  Uiso   1.00
C45    C     0.52087   0.19315   0.10844   0.00000  Uiso   1.00
C46    C     0.48158   0.80665   0.10642   0.00000  Uiso   1.00
C47    C     0.67429   0.19402   0.10714   0.00000  Uiso   1.00
C48    C     0.32617   0.80656   0.10718   0.00000  Uiso   1.00
C49    C     0.39687   0.90635   0.43254   0.00000  Uiso   1.00
C50    C     0.51074   0.90621   0.43423   0.00000  Uiso   1.00
C51    C     0.50959   0.90632   0.06770   0.00000  Uiso   1.00
C52    C     0.60015   0.09425   0.07041   0.00000  Uiso   1.00
C53    C     0.49257   0.09344   0.06978   0.00000  Uiso   1.00
C54    C     0.49407   0.09420   0.42955   0.00000  Uiso   1.00
C55    C     0.39523   0.90601   0.06592   0.00000  Uiso   1.00
C56    C     0.60088   0.09350   0.43003   0.00000  Uiso   1.00
C57    C     0.83615   0.35395   0.41686   0.00000  Uiso   1.00
C58    C     0.16470   0.64470   0.41505   0.00000  Uiso   1.00
C59    C     0.83626   0.48246   0.41649   0.00000  Uiso   1.00
C60    C     0.16368   0.52011   0.41396   0.00000  Uiso   1.00
C61    C     0.87477   0.36477   0.40938   0.00000  Uiso   1.00
C62    C     0.12585   0.63246   0.40657   0.00000  Uiso   1.00
C63    C     0.87497   0.50977   0.40838   0.00000  Uiso   1.00
C64    C     0.12502   0.49280   0.40573   0.00000  Uiso   1.00
C65    C     0.88337   0.34771   0.37708   0.00000  Uiso   1.00
C66    C     0.11711   0.65070   0.37554   0.00000  Uiso   1.00
C67    C     0.88323   0.53633   0.37702   0.00000  Uiso   1.00
C68    C     0.11676   0.46615   0.37452   0.00000  Uiso   1.00
C69    C     0.85397   0.32072   0.35250   0.00000  Uiso   1.00
C70    C     0.14656   0.67995   0.35298   0.00000  Uiso   1.00
C71    C     0.85364   0.53500   0.35368   0.00000  Uiso   1.00
C72    C     0.14642   0.46728   0.35145   0.00000  Uiso   1.00
C73    C     0.81507   0.30972   0.35968   0.00000  Uiso   1.00
C74    C     0.18558   0.69178   0.36059   0.00000  Uiso   1.00
C75    C     0.81473   0.50714   0.36107   0.00000  Uiso   1.00
C76    C     0.18532   0.49502   0.35904   0.00000  Uiso   1.00
C77    C     0.80678   0.32675   0.39249   0.00000  Uiso   1.00
C78    C     0.19403   0.67397   0.39249   0.00000  Uiso   1.00
C79    C     0.80671   0.48131   0.39327   0.00000  Uiso   1.00
C80    C     0.19335   0.52106   0.39110   0.00000  Uiso   1.00
C81    C     0.16362   0.64360   0.08561   0.00000  Uiso   1.00
C82    C     0.83617   0.35354   0.08338   0.00000  Uiso   1.00
C83    C     0.16477   0.51985   0.08465   0.00000  Uiso   1.00
C84    C     0.83584   0.48243   0.08293   0.00000  Uiso   1.00
C85    C     0.12497   0.63226   0.09397   0.00000  Uiso   1.00
C86    C     0.87485   0.36489   0.09161   0.00000  Uiso   1.00
C87    C     0.12596   0.49338   0.09330   0.00000  Uiso   1.00
C88    C     0.87451   0.51020   0.09056   0.00000  Uiso   1.00
C89    C     0.11674   0.65070   0.12521   0.00000  Uiso   1.00
C90    C     0.88301   0.34644   0.12292   0.00000  Uiso   1.00
C91    C     0.11721   0.46636   0.12427   0.00000  Uiso   1.00
C92    C     0.88292   0.53592   0.12280   0.00000  Uiso   1.00
C93    C     0.14643   0.67919   0.14819   0.00000  Uiso   1.00
C94    C     0.85331   0.31815   0.14611   0.00000  Uiso   1.00
C95    C     0.14666   0.46644   0.14674   0.00000  Uiso   1.00
C96    C     0.85343   0.53347   0.14722   0.00000  Uiso   1.00
C97    C     0.18529   0.69025   0.14053   0.00000  Uiso   1.00
C98    C     0.81444   0.30715   0.13866   0.00000  Uiso   1.00
C99    C     0.18570   0.49358   0.13903   0.00000  Uiso   1.00
C100   C     0.81458   0.50553   0.14002   0.00000  Uiso   1.00
C101   C     0.19329   0.67230   0.10844   0.00000  Uiso   1.00
C102   C     0.80648   0.32505   0.10642   0.00000  Uiso   1.00
C103   C     0.19414   0.51985   0.10714   0.00000  Uiso   1.00
C104   C     0.80640   0.48024   0.10718   0.00000  Uiso   1.00
C105   C     0.90628   0.50940   0.43254   0.00000  Uiso   1.00
C106   C     0.90613   0.39546   0.43423   0.00000  Uiso   1.00
C107   C     0.90624   0.39673   0.06770   0.00000  Uiso   1.00
C108   C     0.09432   0.49415   0.07041   0.00000  Uiso   1.00
C109   C     0.09349   0.60085   0.06978   0.00000  Uiso   1.00
C110   C     0.09426   0.60013   0.42955   0.00000  Uiso   1.00
C111   C     0.90594   0.51072   0.06592   0.00000  Uiso   1.00
C112   C     0.09358   0.49271   0.43003   0.00000  Uiso   1.00
C113   C     0.51775   0.35397   0.08314   0.00000  Uiso   1.00
C114   C     0.48004   0.64467   0.08495   0.00000  Uiso   1.00
C115   C     0.64622   0.48252   0.08350   0.00000  Uiso   1.00
C116   C     0.35638   0.52002   0.08604   0.00000  Uiso   1.00
C117   C     0.48994   0.36480   0.09062   0.00000  Uiso   1.00
C118   C     0.50665   0.63243   0.09342   0.00000  Uiso   1.00
C119   C     0.63484   0.50983   0.09161   0.00000  Uiso   1.00
C120   C     0.36776   0.49277   0.09427   0.00000  Uiso   1.00
C121   C     0.46425   0.34771   0.12292   0.00000  Uiso   1.00
C122   C     0.53365   0.65070   0.12445   0.00000  Uiso   1.00
C123   C     0.65313   0.53639   0.12298   0.00000  Uiso   1.00
C124   C     0.34933   0.46609   0.12548   0.00000  Uiso   1.00
C125   C     0.46667   0.32075   0.14750   0.00000  Uiso   1.00
C126   C     0.53347   0.67995   0.14701   0.00000  Uiso   1.00
C127   C     0.68139   0.53506   0.14632   0.00000  Uiso   1.00
C128   C     0.32080   0.46722   0.14855   0.00000  Uiso   1.00
C129   C     0.49459   0.30978   0.14032   0.00000  Uiso   1.00
C130   C     0.50626   0.69175   0.13941   0.00000  Uiso   1.00
C131   C     0.69246   0.50723   0.13893   0.00000  Uiso   1.00
C132   C     0.30966   0.49496   0.14096   0.00000  Uiso   1.00
C133   C     0.51990   0.32678   0.10751   0.00000  Uiso   1.00
C134   C     0.47998   0.67394   0.10751   0.00000  Uiso   1.00
C135   C     0.67465   0.48140   0.10672   0.00000  Uiso   1.00
C136   C     0.32768   0.52097   0.10889   0.00000  Uiso   1.00
C137   C     0.48005   0.64357   0.41438   0.00000  Uiso   1.00
C138   C     0.51732   0.35357   0.41661   0.00000  Uiso   1.00
C139   C     0.35506   0.51979   0.41535   0.00000  Uiso   1.00
C140   C     0.64661   0.48249   0.41707   0.00000  Uiso   1.00
C141   C     0.50732   0.63223   0.40603   0.00000  Uiso   1.00
C142   C     0.49000   0.36491   0.40838   0.00000  Uiso   1.00
C143   C     0.36738   0.49332   0.40669   0.00000  Uiso   1.00
C144   C     0.63573   0.51026   0.40944   0.00000  Uiso   1.00
C145   C     0.53401   0.65067   0.37479   0.00000  Uiso   1.00
C146   C     0.46337   0.34644   0.37708   0.00000  Uiso   1.00
C147   C     0.34911   0.46630   0.37573   0.00000  Uiso   1.00
C148   C     0.65303   0.53598   0.37720   0.00000  Uiso   1.00
C149   C     0.53283   0.67917   0.35181   0.00000  Uiso   1.00
C150   C     0.46476   0.31818   0.35389   0.00000  Uiso   1.00
C151   C     0.31976   0.46638   0.35326   0.00000  Uiso   1.00
C152   C     0.68009   0.53356   0.35277   0.00000  Uiso   1.00
C153   C     0.50504   0.69022   0.35947   0.00000  Uiso   1.00
C154   C     0.49265   0.30721   0.36134   0.00000  Uiso   1.00
C155   C     0.30783   0.49349   0.36097   0.00000  Uiso   1.00
C156   C     0.69099   0.50559   0.35998   0.00000  Uiso   1.00
C157   C     0.47905   0.67224   0.39155   0.00000  Uiso   1.00
C158   C     0.51850   0.32508   0.39357   0.00000  Uiso   1.00
C159   C     0.32565   0.51976   0.39285   0.00000  Uiso   1.00
C160   C     0.67387   0.48033   0.39282   0.00000  Uiso   1.00
C161   C     0.60314   0.50943   0.06746   0.00000  Uiso   1.00
C162   C     0.48928   0.39548   0.06577   0.00000  Uiso   1.00
C163   C     0.49044   0.39676   0.43230   0.00000  Uiso   1.00
C164   C     0.39984   0.49412   0.42958   0.00000  Uiso   1.00
C165   C     0.50740   0.60085   0.43022   0.00000  Uiso   1.00
C166   C     0.50590   0.60010   0.07045   0.00000  Uiso   1.00
C167   C     0.60478   0.51075   0.43407   0.00000  Uiso   1.00
C168   C     0.39910   0.49265   0.06996   0.00000  Uiso   1.00
C169   C     0.49231   0.21469   0.16119   0.00000  Uiso   1.00
C170   C     0.49061   0.21498   0.20479   0.00000  Uiso   1.00
C171   C     0.49481   0.18868   0.22789   0.00000  Uiso   1.00
C172   C     0.49473   0.24737   0.14141   0.00000  Uiso   1.00
C173   C     0.48925   0.24462   0.22651   0.00000  Uiso   1.00
C174   C     0.27761   0.49231   0.16119   0.00000  Uiso   1.00
C175   C     0.27565   0.49063   0.20479   0.00000  Uiso   1.00
C176   C     0.30611   0.49482   0.22789   0.00000  Uiso   1.00
C177   C     0.24738   0.49473   0.14141   0.00000  Uiso   1.00
C178   C     0.24461   0.48925   0.22651   0.00000  Uiso   1.00
C179   C     0.78530   0.27762   0.16119   0.00000  Uiso   1.00
C180   C     0.78500   0.27563   0.20479   0.00000  Uiso   1.00
C181   C     0.81131   0.30611   0.22789   0.00000  Uiso   1.00
C182   C     0.75265   0.24737   0.14141   0.00000  Uiso   1.00
C183   C     0.75538   0.24462   0.22651   0.00000  Uiso   1.00
C184   C     0.50769   0.78531   0.16119   0.00000  Uiso   1.00
C185   C     0.50939   0.78502   0.20479   0.00000  Uiso   1.00
C186   C     0.50519   0.81132   0.22789   0.00000  Uiso   1.00
C187   C     0.50527   0.75263   0.14141   0.00000  Uiso   1.00
C188   C     0.51075   0.75538   0.22651   0.00000  Uiso   1.00
C189   C     0.72239   0.50769   0.16119   0.00000  Uiso   1.00
C190   C     0.72435   0.50937   0.20479   0.00000  Uiso   1.00
C191   C     0.69389   0.50518   0.22789   0.00000  Uiso   1.00
C192   C     0.75262   0.50527   0.14141   0.00000  Uiso   1.00
C193   C     0.75539   0.51075   0.22651   0.00000  Uiso   1.00
C194   C     0.21470   0.72238   0.16119   0.00000  Uiso   1.00
C195   C     0.21500   0.72437   0.20479   0.00000  Uiso   1.00
C196   C     0.18869   0.69389   0.22789   0.00000  Uiso   1.00
C197   C     0.24735   0.75263   0.14141   0.00000  Uiso   1.00
C198   C     0.24462   0.75538   0.22651   0.00000  Uiso   1.00
C199   C     0.78531   0.50769   0.33881   0.00000  Uiso   1.00
C200   C     0.78502   0.50937   0.29520   0.00000  Uiso   1.00
C201   C     0.81130   0.50518   0.27210   0.00000  Uiso   1.00
C202   C     0.75265   0.50527   0.35859   0.00000  Uiso   1.00
C203   C     0.75537   0.51075   0.27349   0.00000  Uiso   1.00
C204   C     0.27761   0.78531   0.33881   0.00000  Uiso   1.00
C205   C     0.27564   0.78502   0.29520   0.00000  Uiso   1.00
C206   C     0.30612   0.81132   0.27210   0.00000  Uiso   1.00
C207   C     0.24738   0.75263   0.35859   0.00000  Uiso   1.00
C208   C     0.24462   0.75538   0.27349   0.00000  Uiso   1.00
C209   C     0.49230   0.27762   0.33881   0.00000  Uiso   1.00
C210   C     0.49061   0.27563   0.29520   0.00000  Uiso   1.00
C211   C     0.49480   0.30611   0.27210   0.00000  Uiso   1.00
C212   C     0.49473   0.24737   0.35859   0.00000  Uiso   1.00
C213   C     0.48925   0.24462   0.27349   0.00000  Uiso   1.00
C214   C     0.21469   0.49231   0.33881   0.00000  Uiso   1.00
C215   C     0.21498   0.49063   0.29520   0.00000  Uiso   1.00
C216   C     0.18870   0.49482   0.27210   0.00000  Uiso   1.00
C217   C     0.24735   0.49473   0.35859   0.00000  Uiso   1.00
C218   C     0.24463   0.48925   0.27349   0.00000  Uiso   1.00
C219   C     0.72239   0.21469   0.33881   0.00000  Uiso   1.00
C220   C     0.72436   0.21498   0.29520   0.00000  Uiso   1.00
C221   C     0.69388   0.18868   0.27210   0.00000  Uiso   1.00
C222   C     0.75262   0.24737   0.35859   0.00000  Uiso   1.00
C223   C     0.75538   0.24462   0.27349   0.00000  Uiso   1.00
C224   C     0.50770   0.72238   0.33881   0.00000  Uiso   1.00
C225   C     0.50939   0.72437   0.29520   0.00000  Uiso   1.00
C226   C     0.50520   0.69389   0.27210   0.00000  Uiso   1.00
C227   C     0.50527   0.75263   0.35859   0.00000  Uiso   1.00
C228   C     0.51075   0.75538   0.27349   0.00000  Uiso   1.00
C229   C     0.50769   0.78531   0.33881   0.00000  Uiso   1.00
C230   C     0.50939   0.78502   0.29520   0.00000  Uiso   1.00
C231   C     0.50519   0.81132   0.27210   0.00000  Uiso   1.00
C232   C     0.72239   0.50769   0.33881   0.00000  Uiso   1.00
C233   C     0.72435   0.50937   0.29520   0.00000  Uiso   1.00
C234   C     0.69389   0.50518   0.27210   0.00000  Uiso   1.00
C235   C     0.21470   0.72238   0.33881   0.00000  Uiso   1.00
C236   C     0.21500   0.72437   0.29520   0.00000  Uiso   1.00
C237   C     0.18869   0.69389   0.27210   0.00000  Uiso   1.00
C238   C     0.49231   0.21469   0.33881   0.00000  Uiso   1.00
C239   C     0.49061   0.21498   0.29520   0.00000  Uiso   1.00
C240   C     0.49481   0.18868   0.27210   0.00000  Uiso   1.00
C241   C     0.27761   0.49231   0.33881   0.00000  Uiso   1.00
C242   C     0.27565   0.49063   0.29520   0.00000  Uiso   1.00
C243   C     0.30611   0.49482   0.27210   0.00000  Uiso   1.00
C244   C     0.78530   0.27762   0.33881   0.00000  Uiso   1.00
C245   C     0.78500   0.27563   0.29520   0.00000  Uiso   1.00
C246   C     0.81131   0.30611   0.27210   0.00000  Uiso   1.00
C247   C     0.21469   0.49231   0.16119   0.00000  Uiso   1.00
C248   C     0.21498   0.49063   0.20479   0.00000  Uiso   1.00
C249   C     0.18870   0.49482   0.22789   0.00000  Uiso   1.00
C250   C     0.72239   0.21469   0.16119   0.00000  Uiso   1.00
C251   C     0.72436   0.21498   0.20479   0.00000  Uiso   1.00
C252   C     0.69388   0.18868   0.22789   0.00000  Uiso   1.00
C253   C     0.50770   0.72238   0.16119   0.00000  Uiso   1.00
C254   C     0.50939   0.72437   0.20479   0.00000  Uiso   1.00
C255   C     0.50520   0.69389   0.22789   0.00000  Uiso   1.00
C256   C     0.78531   0.50769   0.16119   0.00000  Uiso   1.00
C257   C     0.78502   0.50937   0.20479   0.00000  Uiso   1.00
C258   C     0.81130   0.50518   0.22789   0.00000  Uiso   1.00
C259   C     0.27761   0.78531   0.16119   0.00000  Uiso   1.00
C260   C     0.27564   0.78502   0.20479   0.00000  Uiso   1.00
C261   C     0.30612   0.81132   0.22789   0.00000  Uiso   1.00
C262   C     0.49230   0.27762   0.16119   0.00000  Uiso   1.00
C263   C     0.49061   0.27563   0.20479   0.00000  Uiso   1.00
C264   C     0.49480   0.30611   0.22789   0.00000  Uiso   1.00
H265   H     0.46241   0.82983   0.44176   0.00000  Uiso   1.00
H266   H     0.54050   0.17110   0.43932   0.00000  Uiso   1.00
H267   H     0.36792   0.83008   0.44093   0.00000  Uiso   1.00
H268   H     0.62937   0.16974   0.43839   0.00000  Uiso   1.00
H269   H     0.55705   0.91346   0.37114   0.00000  Uiso   1.00
H270   H     0.44541   0.08701   0.36948   0.00000  Uiso   1.00
H271   H     0.35577   0.91331   0.37078   0.00000  Uiso   1.00
H272   H     0.64227   0.08678   0.36863   0.00000  Uiso   1.00
H273   H     0.55335   0.86138   0.32738   0.00000  Uiso   1.00
H274   H     0.44544   0.13917   0.32889   0.00000  Uiso   1.00
H275   H     0.30518   0.86086   0.32922   0.00000  Uiso   1.00
H276   H     0.69301   0.13937   0.32726   0.00000  Uiso   1.00
H277   H     0.45840   0.77717   0.39876   0.00000  Uiso   1.00
H278   H     0.54089   0.22381   0.39936   0.00000  Uiso   1.00
H279   H     0.31714   0.77706   0.39991   0.00000  Uiso   1.00
H280   H     0.68058   0.22294   0.39786   0.00000  Uiso   1.00
H281   H     0.54027   0.16963   0.06119   0.00000  Uiso   1.00
H282   H     0.46240   0.83011   0.05895   0.00000  Uiso   1.00
H283   H     0.63079   0.17113   0.06040   0.00000  Uiso   1.00
H284   H     0.36699   0.82962   0.05802   0.00000  Uiso   1.00
H285   H     0.44441   0.08675   0.13106   0.00000  Uiso   1.00
H286   H     0.55784   0.91305   0.12931   0.00000  Uiso   1.00
H287   H     0.64163   0.08709   0.13043   0.00000  Uiso   1.00
H288   H     0.35567   0.91296   0.12886   0.00000  Uiso   1.00
H289   H     0.44632   0.13937   0.17237   0.00000  Uiso   1.00
H290   H     0.55588   0.86042   0.17059   0.00000  Uiso   1.00
H291   H     0.69396   0.13929   0.17078   0.00000  Uiso   1.00
H292   H     0.30720   0.86074   0.17232   0.00000  Uiso   1.00
H293   H     0.54230   0.22289   0.10172   0.00000  Uiso   1.00
H294   H     0.46004   0.77688   0.09967   0.00000  Uiso   1.00
H295   H     0.68329   0.22390   0.10021   0.00000  Uiso   1.00
H296   H     0.31819   0.77680   0.10081   0.00000  Uiso   1.00
H297   H     0.45694   0.05664   0.49867   0.00000  Uiso   1.00
H298   H     0.47300   0.94359   0.41363   0.00000  Uiso   1.00
H299   H     0.59251   0.97278   0.04922   0.00000  Uiso   1.00
H300   H     0.60122   0.99939   0.01076   0.00000  Uiso   1.00
H301   H     0.37921   0.97855   0.04979   0.00000  Uiso   1.00
H302   H     0.49149   0.00049   0.12255   0.00000  Uiso   1.00
H303   H     0.55194   0.02151   0.13263   0.00000  Uiso   1.00
H304   H     0.47264   0.02682   0.12822   0.00000  Uiso   1.00
H305   H     0.59974   0.05673   0.00132   0.00000  Uiso   1.00
H306   H     0.47060   0.94359   0.08658   0.00000  Uiso   1.00
H307   H     0.59950   0.97875   0.45033   0.00000  Uiso   1.00
H308   H     0.39809   0.99928   0.48938   0.00000  Uiso   1.00
H309   H     0.38020   0.97272   0.45096   0.00000  Uiso   1.00
H310   H     0.55416   0.02679   0.37187   0.00000  Uiso   1.00
H311   H     0.46951   0.02142   0.36752   0.00000  Uiso   1.00
H312   H     0.50897   0.00043   0.37756   0.00000  Uiso   1.00
H313   H     0.82970   0.36740   0.44176   0.00000  Uiso   1.00
H314   H     0.17123   0.63061   0.43932   0.00000  Uiso   1.00
H315   H     0.82996   0.46208   0.44093   0.00000  Uiso   1.00
H316   H     0.16986   0.54046   0.43839   0.00000  Uiso   1.00
H317   H     0.91337   0.35643   0.37114   0.00000  Uiso   1.00
H318   H     0.08707   0.64155   0.36948   0.00000  Uiso   1.00
H319   H     0.91325   0.55743   0.37078   0.00000  Uiso   1.00
H320   H     0.08682   0.44462   0.36863   0.00000  Uiso   1.00
H321   H     0.86124   0.30805   0.32738   0.00000  Uiso   1.00
H322   H     0.13926   0.69366   0.32889   0.00000  Uiso   1.00
H323   H     0.86075   0.55556   0.32922   0.00000  Uiso   1.00
H324   H     0.13945   0.44649   0.32726   0.00000  Uiso   1.00
H325   H     0.77701   0.31876   0.39876   0.00000  Uiso   1.00
H326   H     0.22399   0.68295   0.39936   0.00000  Uiso   1.00
H327   H     0.77691   0.45980   0.39991   0.00000  Uiso   1.00
H328   H     0.22312   0.54251   0.39786   0.00000  Uiso   1.00
H329   H     0.16978   0.62940   0.06119   0.00000  Uiso   1.00
H330   H     0.82999   0.36769   0.05895   0.00000  Uiso   1.00
H331   H     0.17124   0.54043   0.06040   0.00000  Uiso   1.00
H332   H     0.82949   0.46254   0.05802   0.00000  Uiso   1.00
H333   H     0.08682   0.64230   0.13106   0.00000  Uiso   1.00
H334   H     0.91298   0.35524   0.12931   0.00000  Uiso   1.00
H335   H     0.08715   0.44557   0.13043   0.00000  Uiso   1.00
H336   H     0.91291   0.55720   0.12886   0.00000  Uiso   1.00
H337   H     0.13949   0.69302   0.17237   0.00000  Uiso   1.00
H338   H     0.86032   0.30461   0.17059   0.00000  Uiso   1.00
H339   H     0.13940   0.44548   0.17078   0.00000  Uiso   1.00
H340   H     0.86065   0.55342   0.17232   0.00000  Uiso   1.00
H341   H     0.22307   0.68061   0.10172   0.00000  Uiso   1.00
H342   H     0.77672   0.31682   0.09967   0.00000  Uiso   1.00
H343   H     0.22407   0.54075   0.10021   0.00000  Uiso   1.00
H344   H     0.77664   0.45847   0.10081   0.00000  Uiso   1.00
H345   H     0.05668   0.59967   0.49867   0.00000  Uiso   1.00
H346   H     0.94354   0.47057   0.41363   0.00000  Uiso   1.00
H347   H     0.97274   0.38033   0.04922   0.00000  Uiso   1.00
H348   H     0.99938   0.39826   0.01076   0.00000  Uiso   1.00
H349   H     0.97854   0.59926   0.04979   0.00000  Uiso   1.00
H350   H     0.00051   0.50902   0.12255   0.00000  Uiso   1.00
H351   H     0.02151   0.46959   0.13263   0.00000  Uiso   1.00
H352   H     0.02683   0.55417   0.12822   0.00000  Uiso   1.00
H353   H     0.05677   0.45706   0.00132   0.00000  Uiso   1.00
H354   H     0.94354   0.47297   0.08658   0.00000  Uiso   1.00
H355   H     0.97872   0.37932   0.45033   0.00000  Uiso   1.00
H356   H     0.99928   0.60111   0.48938   0.00000  Uiso   1.00
H357   H     0.97269   0.59242   0.45096   0.00000  Uiso   1.00
H358   H     0.02679   0.47265   0.37187   0.00000  Uiso   1.00
H359   H     0.02144   0.55189   0.36752   0.00000  Uiso   1.00
H360   H     0.00043   0.49147   0.37756   0.00000  Uiso   1.00
H361   H     0.53766   0.36745   0.05823   0.00000  Uiso   1.00
H362   H     0.45944   0.63058   0.06067   0.00000  Uiso   1.00
H363   H     0.63212   0.46214   0.05907   0.00000  Uiso   1.00
H364   H     0.37058   0.54040   0.06161   0.00000  Uiso   1.00
H365   H     0.44301   0.35646   0.12886   0.00000  Uiso   1.00
H366   H     0.55454   0.64155   0.13052   0.00000  Uiso   1.00
H367   H     0.64424   0.55746   0.12922   0.00000  Uiso   1.00
H368   H     0.35772   0.44456   0.13137   0.00000  Uiso   1.00
H369   H     0.44672   0.30807   0.17262   0.00000  Uiso   1.00
H370   H     0.55447   0.69366   0.17111   0.00000  Uiso   1.00
H371   H     0.69485   0.55561   0.17078   0.00000  Uiso   1.00
H372   H     0.30697   0.44644   0.17274   0.00000  Uiso   1.00
H373   H     0.54169   0.31881   0.10123   0.00000  Uiso   1.00
H374   H     0.45903   0.68292   0.10063   0.00000  Uiso   1.00
H375   H     0.68292   0.45986   0.10009   0.00000  Uiso   1.00
H376   H     0.31938   0.54242   0.10214   0.00000  Uiso   1.00
H377   H     0.45966   0.62934   0.43881   0.00000  Uiso   1.00
H378   H     0.53768   0.36774   0.44104   0.00000  Uiso   1.00
H379   H     0.36916   0.54037   0.43959   0.00000  Uiso   1.00
H380   H     0.63305   0.46260   0.44198   0.00000  Uiso   1.00
H381   H     0.55553   0.64227   0.36894   0.00000  Uiso   1.00
H382   H     0.44220   0.35524   0.37069   0.00000  Uiso   1.00
H383   H     0.35837   0.44551   0.36957   0.00000  Uiso   1.00
H384   H     0.64435   0.55723   0.37114   0.00000  Uiso   1.00
H385   H     0.55361   0.69299   0.32763   0.00000  Uiso   1.00
H386   H     0.44421   0.30461   0.32940   0.00000  Uiso   1.00
H387   H     0.30603   0.44540   0.32922   0.00000  Uiso   1.00
H388   H     0.69283   0.55348   0.32768   0.00000  Uiso   1.00
H389   H     0.45759   0.68055   0.39828   0.00000  Uiso   1.00
H390   H     0.54004   0.31688   0.40033   0.00000  Uiso   1.00
H391   H     0.31664   0.54066   0.39979   0.00000  Uiso   1.00
H392   H     0.68187   0.45856   0.39919   0.00000  Uiso   1.00
H393   H     0.54304   0.59967   0.00132   0.00000  Uiso   1.00
H394   H     0.52702   0.47060   0.08637   0.00000  Uiso   1.00
H395   H     0.40752   0.38033   0.45078   0.00000  Uiso   1.00
H396   H     0.39881   0.39823   0.48923   0.00000  Uiso   1.00
H397   H     0.62079   0.59929   0.45021   0.00000  Uiso   1.00
H398   H     0.50852   0.50902   0.37744   0.00000  Uiso   1.00
H399   H     0.44805   0.46959   0.36737   0.00000  Uiso   1.00
H400   H     0.52736   0.55417   0.37178   0.00000  Uiso   1.00
H401   H     0.40024   0.45703   0.49867   0.00000  Uiso   1.00
H402   H     0.52942   0.47299   0.41342   0.00000  Uiso   1.00
H403   H     0.40052   0.37929   0.04967   0.00000  Uiso   1.00
H404   H     0.60189   0.60114   0.01061   0.00000  Uiso   1.00
H405   H     0.61979   0.59245   0.04903   0.00000  Uiso   1.00
H406   H     0.44583   0.47265   0.12813   0.00000  Uiso   1.00
H407   H     0.53049   0.55189   0.13248   0.00000  Uiso   1.00
H408   H     0.49103   0.49147   0.12243   0.00000  Uiso   1.00
H409   H     0.83114   0.49874   0.28589   0.00000  Uiso   1.00
H410   H     0.49566   0.24783   0.10920   0.00000  Uiso   1.00
H411   H     0.33240   0.83115   0.28589   0.00000  Uiso   1.00
H412   H     0.24784   0.49566   0.10920   0.00000  Uiso   1.00
H413   H     0.50126   0.33241   0.28589   0.00000  Uiso   1.00
H414   H     0.75218   0.24783   0.10920   0.00000  Uiso   1.00
H415   H     0.16885   0.50126   0.28589   0.00000  Uiso   1.00
H416   H     0.50434   0.75217   0.10920   0.00000  Uiso   1.00
H417   H     0.66760   0.16885   0.28589   0.00000  Uiso   1.00
H418   H     0.75216   0.50434   0.10920   0.00000  Uiso   1.00
H419   H     0.49874   0.66759   0.28589   0.00000  Uiso   1.00
H420   H     0.24782   0.75217   0.10920   0.00000  Uiso   1.00
H421   H     0.50125   0.16885   0.21411   0.00000  Uiso   1.00
H422   H     0.75216   0.50434   0.39080   0.00000  Uiso   1.00
H423   H     0.33240   0.50126   0.21411   0.00000  Uiso   1.00
H424   H     0.24782   0.75217   0.39080   0.00000  Uiso   1.00
H425   H     0.83115   0.33241   0.21411   0.00000  Uiso   1.00
H426   H     0.49566   0.24783   0.39080   0.00000  Uiso   1.00
H427   H     0.49875   0.83115   0.21411   0.00000  Uiso   1.00
H428   H     0.24784   0.49566   0.39080   0.00000  Uiso   1.00
H429   H     0.66760   0.49874   0.21411   0.00000  Uiso   1.00
H430   H     0.75218   0.24783   0.39080   0.00000  Uiso   1.00
H431   H     0.16885   0.66759   0.21411   0.00000  Uiso   1.00
H432   H     0.50434   0.75217   0.39080   0.00000  Uiso   1.00
H433   H     0.16885   0.50126   0.21411   0.00000  Uiso   1.00
H434   H     0.66760   0.16885   0.21411   0.00000  Uiso   1.00
H435   H     0.49874   0.66759   0.21411   0.00000  Uiso   1.00
H436   H     0.83114   0.49874   0.21411   0.00000  Uiso   1.00
H437   H     0.33240   0.83115   0.21411   0.00000  Uiso   1.00
H438   H     0.50126   0.33241   0.21411   0.00000  Uiso   1.00
H439   H     0.49875   0.83115   0.28589   0.00000  Uiso   1.00
H440   H     0.66760   0.49874   0.28589   0.00000  Uiso   1.00
H441   H     0.16885   0.66759   0.28589   0.00000  Uiso   1.00
H442   H     0.50125   0.16885   0.28589   0.00000  Uiso   1.00
H443   H     0.33240   0.50126   0.28589   0.00000  Uiso   1.00
H444   H     0.83115   0.33241   0.28589   0.00000  Uiso   1.00
Zr445  Zr    0.53614   0.07228  -0.00000   0.00000  Uiso   1.00
Zr446  Zr    0.54671   0.99919   0.44855   0.00000  Uiso   1.00
Zr447  Zr    0.54310   0.00078   0.05675   0.00000  Uiso   1.00
Zr448  Zr    0.45244   0.99911   0.05160   0.00000  Uiso   1.00
Zr449  Zr    0.46371   0.92743   0.00018   0.00000  Uiso   1.00
Zr450  Zr    0.45765   0.00072   0.44336   0.00000  Uiso   1.00
Zr451  Zr    0.07233   0.53616  -0.00000   0.00000  Uiso   1.00
Zr452  Zr    0.99919   0.45253   0.44855   0.00000  Uiso   1.00
Zr453  Zr    0.00079   0.45772   0.05675   0.00000  Uiso   1.00
Zr454  Zr    0.99910   0.54661   0.05160   0.00000  Uiso   1.00
Zr455  Zr    0.92737   0.46370   0.00018   0.00000  Uiso   1.00
Zr456  Zr    0.00073   0.54306   0.44336   0.00000  Uiso   1.00
Zr457  Zr    0.46383   0.53616  -0.00000   0.00000  Uiso   1.00
Zr458  Zr    0.45331   0.45250   0.05145   0.00000  Uiso   1.00
Zr459  Zr    0.45692   0.45769   0.44324   0.00000  Uiso   1.00
Zr460  Zr    0.54755   0.54664   0.44840   0.00000  Uiso   1.00
Zr461  Zr    0.53632   0.46373   0.49982   0.00000  Uiso   1.00
Zr462  Zr    0.54234   0.54306   0.05663   0.00000  Uiso   1.00
O463   O     0.52155   0.96937   0.00163   0.00000  Uiso   1.00
O464   O     0.48181   0.89590   0.04297   0.00000  Uiso   1.00
O465   O     0.41171   0.89590   0.03983   0.00000  Uiso   1.00
O466   O     0.48422   0.89602   0.46040   0.00000  Uiso   1.00
O467   O     0.53708   0.94071   0.42702   0.00000  Uiso   1.00
O468   O     0.53463   0.00121   0.38025   0.00000  Uiso   1.00
O469   O     0.59021   0.05883   0.42047   0.00000  Uiso   1.00
O470   O     0.46977   0.05964   0.41975   0.00000  Uiso   1.00
O471   O     0.58722   0.10395   0.45886   0.00000  Uiso   1.00
O472   O     0.51913   0.10433   0.45733   0.00000  Uiso   1.00
O473   O     0.58522   0.10436   0.04264   0.00000  Uiso   1.00
O474   O     0.51670   0.10387   0.04101   0.00000  Uiso   1.00
O475   O     0.46861   0.05877   0.07949   0.00000  Uiso   1.00
O476   O     0.58986   0.05973   0.08028   0.00000  Uiso   1.00
O477   O     0.51408   0.03069   0.04476   0.00000  Uiso   1.00
O478   O     0.57212   0.04013   0.00178   0.00000  Uiso   1.00
O479   O     0.59891   0.00052   0.46191   0.00000  Uiso   1.00
O480   O     0.59841   0.99838   0.04122   0.00000  Uiso   1.00
O481   O     0.39991   0.99833   0.45892   0.00000  Uiso   1.00
O482   O     0.51665   0.03071   0.45528   0.00000  Uiso   1.00
O483   O     0.48139   0.95970   0.43733   0.00000  Uiso   1.00
O484   O     0.40488   0.94085   0.42617   0.00000  Uiso   1.00
O485   O     0.46794   0.99942   0.38118   0.00000  Uiso   1.00
O486   O     0.41414   0.89590   0.45736   0.00000  Uiso   1.00
O487   O     0.53150   0.99951   0.11897   0.00000  Uiso   1.00
O488   O     0.46657   0.00124   0.11984   0.00000  Uiso   1.00
O489   O     0.47831   0.95970   0.06287   0.00000  Uiso   1.00
O490   O     0.53605   0.94085   0.07412   0.00000  Uiso   1.00
O491   O     0.40345   0.94050   0.07322   0.00000  Uiso   1.00
O492   O     0.40154   0.00038   0.03827   0.00000  Uiso   1.00
O493   O     0.46797   0.04004   0.49828   0.00000  Uiso   1.00
O494   O     0.44779   0.96931   0.49858   0.00000  Uiso   1.00
O495   O     0.96936   0.44782   0.00163   0.00000  Uiso   1.00
O496   O     0.89584   0.41408   0.04297   0.00000  Uiso   1.00
O497   O     0.89583   0.48411   0.03983   0.00000  Uiso   1.00
O498   O     0.89594   0.41180   0.46040   0.00000  Uiso   1.00
O499   O     0.94064   0.40363   0.42702   0.00000  Uiso   1.00
O500   O     0.00121   0.46661   0.38025   0.00000  Uiso   1.00
O501   O     0.05889   0.46869   0.42047   0.00000  Uiso   1.00
O502   O     0.05969   0.58985   0.41975   0.00000  Uiso   1.00
O503   O     0.10402   0.51679   0.45886   0.00000  Uiso   1.00
O504   O     0.10440   0.58520   0.45733   0.00000  Uiso   1.00
O505   O     0.10443   0.51921   0.04264   0.00000  Uiso   1.00
O506   O     0.10395   0.58719   0.04101   0.00000  Uiso   1.00
O507   O     0.05881   0.59014   0.07949   0.00000  Uiso   1.00
O508   O     0.05976   0.46993   0.08028   0.00000  Uiso   1.00
O509   O     0.03073   0.51661   0.04476   0.00000  Uiso   1.00
O510   O     0.04016   0.46806   0.00178   0.00000  Uiso   1.00
O511   O     0.00052   0.40169   0.46191   0.00000  Uiso   1.00
O512   O     0.99840   0.40005   0.04122   0.00000  Uiso   1.00
O513   O     0.99834   0.59834   0.45892   0.00000  Uiso   1.00
O514   O     0.03073   0.51407   0.45528   0.00000  Uiso   1.00
O515   O     0.95967   0.47831   0.43733   0.00000  Uiso   1.00
O516   O     0.94083   0.53590   0.42617   0.00000  Uiso   1.00
O517   O     0.99944   0.53148   0.38118   0.00000  Uiso   1.00
O518   O     0.89583   0.48171   0.45736   0.00000  Uiso   1.00
O519   O     0.99951   0.46803   0.11897   0.00000  Uiso   1.00
O520   O     0.00125   0.53465   0.11984   0.00000  Uiso   1.00
O521   O     0.95968   0.48137   0.06287   0.00000  Uiso   1.00
O522   O     0.94080   0.40484   0.07412   0.00000  Uiso   1.00
O523   O     0.94045   0.53699   0.07322   0.00000  Uiso   1.00
O524   O     0.00038   0.59877   0.03827   0.00000  Uiso   1.00
O525   O     0.04007   0.57204   0.49828   0.00000  Uiso   1.00
O526   O     0.96930   0.52149   0.49858   0.00000  Uiso   1.00
O527   O     0.47844   0.44782   0.49837   0.00000  Uiso   1.00
O528   O     0.51822   0.41410   0.45702   0.00000  Uiso   1.00
O529   O     0.58830   0.48417   0.46016   0.00000  Uiso   1.00
O530   O     0.51582   0.41182   0.03960   0.00000  Uiso   1.00
O531   O     0.46295   0.40365   0.07298   0.00000  Uiso   1.00
O532   O     0.46538   0.46661   0.11975   0.00000  Uiso   1.00
O533   O     0.40979   0.46866   0.07953   0.00000  Uiso   1.00
O534   O     0.53020   0.58985   0.08024   0.00000  Uiso   1.00
O535   O     0.41274   0.51676   0.04113   0.00000  Uiso   1.00
O536   O     0.48082   0.58517   0.04267   0.00000  Uiso   1.00
O537   O     0.41475   0.51918   0.45736   0.00000  Uiso   1.00
O538   O     0.48327   0.58717   0.45899   0.00000  Uiso   1.00
O539   O     0.53137   0.59014   0.42053   0.00000  Uiso   1.00
O540   O     0.41013   0.46991   0.41972   0.00000  Uiso   1.00
O541   O     0.48590   0.51661   0.45525   0.00000  Uiso   1.00
O542   O     0.42786   0.46803   0.49822   0.00000  Uiso   1.00
O543   O     0.40111   0.40166   0.03809   0.00000  Uiso   1.00
O544   O     0.40162   0.40005   0.45877   0.00000  Uiso   1.00
O545   O     0.60006   0.59837   0.04107   0.00000  Uiso   1.00
O546   O     0.48335   0.51407   0.04472   0.00000  Uiso   1.00
O547   O     0.51862   0.47831   0.06267   0.00000  Uiso   1.00
O548   O     0.59511   0.53592   0.07383   0.00000  Uiso   1.00
O549   O     0.53206   0.53148   0.11882   0.00000  Uiso   1.00
O550   O     0.58588   0.48174   0.04264   0.00000  Uiso   1.00
O551   O     0.46849   0.46803   0.38103   0.00000  Uiso   1.00
O552   O     0.53340   0.53465   0.38015   0.00000  Uiso   1.00
O553   O     0.52169   0.48139   0.43712   0.00000  Uiso   1.00
O554   O     0.46399   0.40484   0.42587   0.00000  Uiso   1.00
O555   O     0.59656   0.53702   0.42678   0.00000  Uiso   1.00
O556   O     0.59843   0.59877   0.46173   0.00000  Uiso   1.00
O557   O     0.53199   0.57204   0.00172   0.00000  Uiso   1.00
O558   O     0.55222   0.52152   0.00141   0.00000  Uiso   1.00
C559   C     0.48232   0.83626   0.91686   0.00000  Uiso   1.00
C560   C     0.51988   0.16457   0.91505   0.00000  Uiso   1.00
C561   C     0.35383   0.83638   0.91649   0.00000  Uiso   1.00
C562   C     0.64356   0.16356   0.91396   0.00000  Uiso   1.00
C563   C     0.51013   0.87489   0.90938   0.00000  Uiso   1.00
C564   C     0.49329   0.12575   0.90657   0.00000  Uiso   1.00
C565   C     0.36518   0.87506   0.90838   0.00000  Uiso   1.00
C566   C     0.63222   0.12494   0.90573   0.00000  Uiso   1.00
C567   C     0.53578   0.88346   0.87708   0.00000  Uiso   1.00
C568   C     0.46629   0.11703   0.87554   0.00000  Uiso   1.00
C569   C     0.34687   0.88332   0.87702   0.00000  Uiso   1.00
C570   C     0.65065   0.11668   0.87452   0.00000  Uiso   1.00
C571   C     0.53340   0.85410   0.85250   0.00000  Uiso   1.00
C572   C     0.46645   0.14644   0.85298   0.00000  Uiso   1.00
C573   C     0.31862   0.85376   0.85368   0.00000  Uiso   1.00
C574   C     0.67917   0.14633   0.85145   0.00000  Uiso   1.00
C575   C     0.50551   0.81522   0.85968   0.00000  Uiso   1.00
C576   C     0.49367   0.18544   0.86059   0.00000  Uiso   1.00
C577   C     0.30759   0.81487   0.86107   0.00000  Uiso   1.00
C578   C     0.69029   0.18518   0.85904   0.00000  Uiso   1.00
C579   C     0.48018   0.80693   0.89249   0.00000  Uiso   1.00
C580   C     0.51994   0.19390   0.89249   0.00000  Uiso   1.00
C581   C     0.32542   0.80685   0.89327   0.00000  Uiso   1.00
C582   C     0.67226   0.19321   0.89110   0.00000  Uiso   1.00
C583   C     0.51990   0.16348   0.58561   0.00000  Uiso   1.00
C584   C     0.48273   0.83629   0.58338   0.00000  Uiso   1.00
C585   C     0.64491   0.16466   0.58465   0.00000  Uiso   1.00
C586   C     0.35341   0.83595   0.58293   0.00000  Uiso   1.00
C587   C     0.49261   0.12488   0.59397   0.00000  Uiso   1.00
C588   C     0.51008   0.87495   0.59161   0.00000  Uiso   1.00
C589   C     0.63258   0.12586   0.59330   0.00000  Uiso   1.00
C590   C     0.36430   0.87460   0.59056   0.00000  Uiso   1.00
C591   C     0.46591   0.11662   0.62521   0.00000  Uiso   1.00
C592   C     0.53670   0.88309   0.62292   0.00000  Uiso   1.00
C593   C     0.65088   0.11714   0.62427   0.00000  Uiso   1.00
C594   C     0.34698   0.88300   0.62280   0.00000  Uiso   1.00
C595   C     0.46712   0.14633   0.64819   0.00000  Uiso   1.00
C596   C     0.53532   0.85344   0.64611   0.00000  Uiso   1.00
C597   C     0.68024   0.14656   0.64674   0.00000  Uiso   1.00
C598   C     0.31994   0.85355   0.64722   0.00000  Uiso   1.00
C599   C     0.49488   0.18513   0.64053   0.00000  Uiso   1.00
C600   C     0.50742   0.81458   0.63866   0.00000  Uiso   1.00
C601   C     0.69212   0.18556   0.63903   0.00000  Uiso   1.00
C602   C     0.30906   0.81470   0.64002   0.00000  Uiso   1.00
C603   C     0.52087   0.19315   0.60844   0.00000  Uiso   1.00
C604   C     0.48158   0.80665   0.60642   0.00000  Uiso   1.00
C605   C     0.67429   0.19402   0.60714   0.00000  Uiso   1.00
C606   C     0.32617   0.80656   0.60718   0.00000  Uiso   1.00
C607   C     0.39687   0.90635   0.93254   0.00000  Uiso   1.00
C608   C     0.51074   0.90621   0.93423   0.00000  Uiso   1.00
C609   C     0.50959   0.90632   0.56770   0.00000  Uiso   1.00
C610   C     0.60015   0.09425   0.57041   0.00000  Uiso   1.00
C611   C     0.49257   0.09344   0.56978   0.00000  Uiso   1.00
C612   C     0.49407   0.09420   0.92955   0.00000  Uiso   1.00
C613   C     0.39523   0.90601   0.56592   0.00000  Uiso   1.00
C614   C     0.60088   0.09350   0.93003   0.00000  Uiso   1.00
C615   C     0.83615   0.35395   0.91686   0.00000  Uiso   1.00
C616   C     0.16470   0.64470   0.91505   0.00000  Uiso   1.00
C617   C     0.83626   0.48246   0.91649   0.00000  Uiso   1.00
C618   C     0.16368   0.52011   0.91396   0.00000  Uiso   1.00
C619   C     0.87477   0.36477   0.90938   0.00000  Uiso   1.00
C620   C     0.12585   0.63246   0.90657   0.00000  Uiso   1.00
C621   C     0.87497   0.50977   0.90838   0.00000  Uiso   1.00
C622   C     0.12502   0.49280   0.90573   0.00000  Uiso   1.00
C623   C     0.88337   0.34771   0.87708   0.00000  Uiso   1.00
C624   C     0.11711   0.65070   0.87554   0.00000  Uiso   1.00
C625   C     0.88323   0.53633   0.87702   0.00000  Uiso   1.00
C626   C     0.11676   0.46615   0.87452   0.00000  Uiso   1.00
C627   C     0.85397   0.32072   0.85250   0.00000  Uiso   1.00
C628   C     0.14656   0.67995   0.85298   0.00000  Uiso   1.00
C629   C     0.85364   0.53500   0.85368   0.00000  Uiso   1.00
C630   C     0.14642   0.46728   0.85145   0.00000  Uiso   1.00
C631   C     0.81507   0.30972   0.85968   0.00000  Uiso   1.00
C632   C     0.18558   0.69178   0.86059   0.00000  Uiso   1.00
C633   C     0.81473   0.50714   0.86107   0.00000  Uiso   1.00
C634   C     0.18532   0.49502   0.85904   0.00000  Uiso   1.00
C635   C     0.80678   0.32675   0.89249   0.00000  Uiso   1.00
C636   C     0.19403   0.67397   0.89249   0.00000  Uiso   1.00
C637   C     0.80671   0.48131   0.89327   0.00000  Uiso   1.00
C638   C     0.19335   0.52106   0.89110   0.00000  Uiso   1.00
C639   C     0.16362   0.64360   0.58561   0.00000  Uiso   1.00
C640   C     0.83617   0.35354   0.58338   0.00000  Uiso   1.00
C641   C     0.16477   0.51985   0.58465   0.00000  Uiso   1.00
C642   C     0.83584   0.48243   0.58293   0.00000  Uiso   1.00
C643   C     0.12497   0.63226   0.59397   0.00000  Uiso   1.00
C644   C     0.87485   0.36489   0.59161   0.00000  Uiso   1.00
C645   C     0.12596   0.49338   0.59330   0.00000  Uiso   1.00
C646   C     0.87451   0.51020   0.59056   0.00000  Uiso   1.00
C647   C     0.11674   0.65070   0.62521   0.00000  Uiso   1.00
C648   C     0.88301   0.34644   0.62292   0.00000  Uiso   1.00
C649   C     0.11721   0.46636   0.62427   0.00000  Uiso   1.00
C650   C     0.88292   0.53592   0.62280   0.00000  Uiso   1.00
C651   C     0.14643   0.67919   0.64819   0.00000  Uiso   1.00
C652   C     0.85331   0.31815   0.64611   0.00000  Uiso   1.00
C653   C     0.14666   0.46644   0.64674   0.00000  Uiso   1.00
C654   C     0.85343   0.53347   0.64722   0.00000  Uiso   1.00
C655   C     0.18529   0.69025   0.64053   0.00000  Uiso   1.00
C656   C     0.81444   0.30715   0.63866   0.00000  Uiso   1.00
C657   C     0.18570   0.49358   0.63903   0.00000  Uiso   1.00
C658   C     0.81458   0.50553   0.64002   0.00000  Uiso   1.00
C659   C     0.19329   0.67230   0.60844   0.00000  Uiso   1.00
C660   C     0.80648   0.32505   0.60642   0.00000  Uiso   1.00
C661   C     0.19414   0.51985   0.60714   0.00000  Uiso   1.00
C662   C     0.80640   0.48024   0.60718   0.00000  Uiso   1.00
C663   C     0.90628   0.50940   0.93254   0.00000  Uiso   1.00
C664   C     0.90613   0.39546   0.93423   0.00000  Uiso   1.00
C665   C     0.90624   0.39673   0.56770   0.00000  Uiso   1.00
C666   C     0.09432   0.49415   0.57041   0.00000  Uiso   1.00
C667   C     0.09349   0.60085   0.56978   0.00000  Uiso   1.00
C668   C     0.09426   0.60013   0.92955   0.00000  Uiso   1.00
C669   C     0.90594   0.51072   0.56592   0.00000  Uiso   1.00
C670   C     0.09358   0.49271   0.93003   0.00000  Uiso   1.00
C671   C     0.51775   0.35397   0.58314   0.00000  Uiso   1.00
C672   C     0.48004   0.64467   0.58495   0.00000  Uiso   1.00
C673   C     0.64622   0.48252   0.58350   0.00000  Uiso   1.00
C674   C     0.35638   0.52002   0.58604   0.00000  Uiso   1.00
C675   C     0.48994   0.36480   0.59062   0.00000  Uiso   1.00
C676   C     0.50665   0.63243   0.59342   0.00000  Uiso   1.00
C677   C     0.63484   0.50983   0.59161   0.00000  Uiso   1.00
C678   C     0.36776   0.49277   0.59427   0.00000  Uiso   1.00
C679   C     0.46425   0.34771   0.62292   0.00000  Uiso   1.00
C680   C     0.53365   0.65070   0.62445   0.00000  Uiso   1.00
C681   C     0.65313   0.53639   0.62298   0.00000  Uiso   1.00
C682   C     0.34933   0.46609   0.62548   0.00000  Uiso   1.00
C683   C     0.46667   0.32075   0.64750   0.00000  Uiso   1.00
C684   C     0.53347   0.67995   0.64701   0.00000  Uiso   1.00
C685   C     0.68139   0.53506   0.64632   0.00000  Uiso   1.00
C686   C     0.32080   0.46722   0.64855   0.00000  Uiso   1.00
C687   C     0.49459   0.30978   0.64032   0.00000  Uiso   1.00
C688   C     0.50626   0.69175   0.63941   0.00000  Uiso   1.00
C689   C     0.69246   0.50723   0.63893   0.00000  Uiso   1.00
C690   C     0.30966   0.49496   0.64096   0.00000  Uiso   1.00
C691   C     0.51990   0.32678   0.60751   0.00000  Uiso   1.00
C692   C     0.47998   0.67394   0.60751   0.00000  Uiso   1.00
C693   C     0.67465   0.48140   0.60672   0.00000  Uiso   1.00
C694   C     0.32768   0.52097   0.60889   0.00000  Uiso   1.00
C695   C     0.48005   0.64357   0.91438   0.00000  Uiso   1.00
C696   C     0.51732   0.35357   0.91661   0.00000  Uiso   1.00
C697   C     0.35506   0.51979   0.91535   0.00000  Uiso   1.00
C698   C     0.64661   0.48249   0.91707   0.00000  Uiso   1.00
C699   C     0.50732   0.63223   0.90603   0.00000  Uiso   1.00
C700   C     0.49000   0.36491   0.90838   0.00000  Uiso   1.00
C701   C     0.36738   0.49332   0.90669   0.00000  Uiso   1.00
C702   C     0.63573   0.51026   0.90944   0.00000  Uiso   1.00
C703   C     0.53401   0.65067   0.87479   0.00000  Uiso   1.00
C704   C     0.46337   0.34644   0.87708   0.00000  Uiso   1.00
C705   C     0.34911   0.46630   0.87573   0.00000  Uiso   1.00
C706   C     0.65303   0.53598   0.87720   0.00000  Uiso   1.00
C707   C     0.53283   0.67917   0.85181   0.00000  Uiso   1.00
C708   C     0.46476   0.31818   0.85389   0.00000  Uiso   1.00
C709   C     0.31976   0.46638   0.85326   0.00000  Uiso   1.00
C710   C     0.68009   0.53356   0.85277   0.00000  Uiso   1.00
C711   C     0.50504   0.69022   0.85947   0.00000  Uiso   1.00
C712   C     0.49265   0.30721   0.86134   0.00000  Uiso   1.00
C713   C     0.30783   0.49349   0.86097   0.00000  Uiso   1.00
C714   C     0.69099   0.50559   0.85998   0.00000  Uiso   1.00
C715   C     0.47905   0.67224   0.89155   0.00000  Uiso   1.00
C716   C     0.51850   0.32508   0.89357   0.00000  Uiso   1.00
C717   C     0.32565   0.51976   0.89285   0.00000  Uiso   1.00
C718   C     0.67387   0.48033   0.89282   0.00000  Uiso   1.00
C719   C     0.60314   0.50943   0.56746   0.00000  Uiso   1.00
C720   C     0.48928   0.39548   0.56577   0.00000  Uiso   1.00
C721   C     0.49044   0.39676   0.93230   0.00000  Uiso   1.00
C722   C     0.39984   0.49412   0.92958   0.00000  Uiso   1.00
C723   C     0.50740   0.60085   0.93022   0.00000  Uiso   1.00
C724   C     0.50590   0.60010   0.57045   0.00000  Uiso   1.00
C725   C     0.60478   0.51075   0.93407   0.00000  Uiso   1.00
C726   C     0.39910   0.49265   0.56996   0.00000  Uiso   1.00
C727   C     0.49231   0.21469   0.66119   0.00000  Uiso   1.00
C728   C     0.49061   0.21498   0.70479   0.00000  Uiso   1.00
C729   C     0.49481   0.18868   0.72789   0.00000  Uiso   1.00
C730   C     0.49473   0.24737   0.64141   0.00000  Uiso   1.00
C731   C     0.48925   0.24462   0.72651   0.00000  Uiso   1.00
C732   C     0.27761   0.49231   0.66119   0.00000  Uiso   1.00
C733   C     0.27565   0.49063   0.70479   0.00000  Uiso   1.00
C734   C     0.30611   0.49482   0.72789   0.00000  Uiso   1.00
C735   C     0.24738   0.49473   0.64141   0.00000  Uiso   1.00
C736   C     0.24461   0.48925   0.72651   0.00000  Uiso   1.00
C737   C     0.78530   0.27762   0.66119   0.00000  Uiso   1.00
C738   C     0.78500   0.27563   0.70479   0.00000  Uiso   1.00
C739   C     0.81131   0.30611   0.72789   0.00000  Uiso   1.00
C740   C     0.75265   0.24737   0.64141   0.00000  Uiso   1.00
C741   C     0.75538   0.24462   0.72651   0.00000  Uiso   1.00
C742   C     0.50769   0.78531   0.66119   0.00000  Uiso   1.00
C743   C     0.50939   0.78502   0.70479   0.00000  Uiso   1.00
C744   C     0.50519   0.81132   0.72789   0.00000  Uiso   1.00
C745   C     0.50527   0.75263   0.64141   0.00000  Uiso   1.00
C746   C     0.51075   0.75538   0.72651   0.00000  Uiso   1.00
C747   C     0.72239   0.50769   0.66119   0.00000  Uiso   1.00
C748   C     0.72435   0.50937   0.70479   0.00000  Uiso   1.00
C749   C     0.69389   0.50518   0.72789   0.00000  Uiso   1.00
C750   C     0.75262   0.50527   0.64141   0.00000  Uiso   1.00
C751   C     0.75539   0.51075   0.72651   0.00000  Uiso   1.00
C752   C     0.21470   0.72238   0.66119   0.00000  Uiso   1.00
C753   C     0.21500   0.72437   0.70479   0.00000  Uiso   1.00
C754   C     0.18869   0.69389   0.72789   0.00000  Uiso   1.00
C755   C     0.24735   0.75263   0.64141   0.00000  Uiso   1.00
C756   C     0.24462   0.75538   0.72651   0.00000  Uiso   1.00
C757   C     0.78531   0.50769   0.83881   0.00000  Uiso   1.00
C758   C     0.78502   0.50937   0.79520   0.00000  Uiso   1.00
C759   C     0.81130   0.50518   0.77210   0.00000  Uiso   1.00
C760   C     0.75265   0.50527   0.85859   0.00000  Uiso   1.00
C761   C     0.75537   0.51075   0.77349   0.00000  Uiso   1.00
C762   C     0.27761   0.78531   0.83881   0.00000  Uiso   1.00
C763   C     0.27564   0.78502   0.79520   0.00000  Uiso   1.00
C764   C     0.30612   0.81132   0.77210   0.00000  Uiso   1.00
C765   C     0.24738   0.75263   0.85859   0.00000  Uiso   1.00
C766   C     0.24462   0.75538   0.77349   0.00000  Uiso   1.00
C767   C     0.49230   0.27762   0.83881   0.00000  Uiso   1.00
C768   C     0.49061   0.27563   0.79520   0.00000  Uiso   1.00
C769   C     0.49480   0.30611   0.77210   0.00000  Uiso   1.00
C770   C     0.49473   0.24737   0.85859   0.00000  Uiso   1.00
C771   C     0.48925   0.24462   0.77349   0.00000  Uiso   1.00
C772   C     0.21469   0.49231   0.83881   0.00000  Uiso   1.00
C773   C     0.21498   0.49063   0.79520   0.00000  Uiso   1.00
C774   C     0.18870   0.49482   0.77210   0.00000  Uiso   1.00
C775   C     0.24735   0.49473   0.85859   0.00000  Uiso   1.00
C776   C     0.24463   0.48925   0.77349   0.00000  Uiso   1.00
C777   C     0.72239   0.21469   0.83881   0.00000  Uiso   1.00
C778   C     0.72436   0.21498   0.79520   0.00000  Uiso   1.00
C779   C     0.69388   0.18868   0.77210   0.00000  Uiso   1.00
C780   C     0.75262   0.24737   0.85859   0.00000  Uiso   1.00
C781   C     0.75538   0.24462   0.77349   0.00000  Uiso   1.00
C782   C     0.50770   0.72238   0.83881   0.00000  Uiso   1.00
C783   C     0.50939   0.72437   0.79520   0.00000  Uiso   1.00
C784   C     0.50520   0.69389   0.77210   0.00000  Uiso   1.00
C785   C     0.50527   0.75263   0.85859   0.00000  Uiso   1.00
C786   C     0.51075   0.75538   0.77349   0.00000  Uiso   1.00
C787   C     0.50769   0.78531   0.83881   0.00000  Uiso   1.00
C788   C     0.50939   0.78502   0.79520   0.00000  Uiso   1.00
C789   C     0.50519   0.81132   0.77210   0.00000  Uiso   1.00
C790   C     0.72239   0.50769   0.83881   0.00000  Uiso   1.00
C791   C     0.72435   0.50937   0.79520   0.00000  Uiso   1.00
C792   C     0.69389   0.50518   0.77210   0.00000  Uiso   1.00
C793   C     0.21470   0.72238   0.83881   0.00000  Uiso   1.00
C794   C     0.21500   0.72437   0.79520   0.00000  Uiso   1.00
C795   C     0.18869   0.69389   0.77210   0.00000  Uiso   1.00
C796   C     0.49231   0.21469   0.83881   0.00000  Uiso   1.00
C797   C     0.49061   0.21498   0.79520   0.00000  Uiso   1.00
C798   C     0.49481   0.18868   0.77210   0.00000  Uiso   1.00
C799   C     0.27761   0.49231   0.83881   0.00000  Uiso   1.00
C800   C     0.27565   0.49063   0.79520   0.00000  Uiso   1.00
C801   C     0.30611   0.49482   0.77210   0.00000  Uiso   1.00
C802   C     0.78530   0.27762   0.83881   0.00000  Uiso   1.00
C803   C     0.78500   0.27563   0.79520   0.00000  Uiso   1.00
C804   C     0.81131   0.30611   0.77210   0.00000  Uiso   1.00
C805   C     0.21469   0.49231   0.66119   0.00000  Uiso   1.00
C806   C     0.21498   0.49063   0.70479   0.00000  Uiso   1.00
C807   C     0.18870   0.49482   0.72789   0.00000  Uiso   1.00
C808   C     0.72239   0.21469   0.66119   0.00000  Uiso   1.00
C809   C     0.72436   0.21498   0.70479   0.00000  Uiso   1.00
C810   C     0.69388   0.18868   0.72789   0.00000  Uiso   1.00
C811   C     0.50770   0.72238   0.66119   0.00000  Uiso   1.00
C812   C     0.50939   0.72437   0.70479   0.00000  Uiso   1.00
C813   C     0.50520   0.69389   0.72789   0.00000  Uiso   1.00
C814   C     0.78531   0.50769   0.66119   0.00000  Uiso   1.00
C815   C     0.78502   0.50937   0.70479   0.00000  Uiso   1.00
C816   C     0.81130   0.50518   0.72789   0.00000  Uiso   1.00
C817   C     0.27761   0.78531   0.66119   0.00000  Uiso   1.00
C818   C     0.27564   0.78502   0.70479   0.00000  Uiso   1.00
C819   C     0.30612   0.81132   0.72789   0.00000  Uiso   1.00
C820   C     0.49230   0.27762   0.66119   0.00000  Uiso   1.00
C821   C     0.49061   0.27563   0.70479   0.00000  Uiso   1.00
C822   C     0.49480   0.30611   0.72789   0.00000  Uiso   1.00
H823   H     0.46241   0.82983   0.94176   0.00000  Uiso   1.00
H824   H     0.54050   0.17110   0.93932   0.00000  Uiso   1.00
H825   H     0.36792   0.83008   0.94093   0.00000  Uiso   1.00
H826   H     0.62937   0.16974   0.93839   0.00000  Uiso   1.00
H827   H     0.55705   0.91346   0.87114   0.00000  Uiso   1.00
H828   H     0.44541   0.08701   0.86948   0.00000  Uiso   1.00
H829   H     0.35577   0.91331   0.87078   0.00000  Uiso   1.00
H830   H     0.64227   0.08678   0.86863   0.00000  Uiso   1.00
H831   H     0.55335   0.86138   0.82738   0.00000  Uiso   1.00
H832   H     0.44544   0.13917   0.82889   0.00000  Uiso   1.00
H833   H     0.30518   0.86086   0.82922   0.00000  Uiso   1.00
H834   H     0.69301   0.13937   0.82726   0.00000  Uiso   1.00
H835   H     0.45840   0.77717   0.89876   0.00000  Uiso   1.00
H836   H     0.54089   0.22381   0.89936   0.00000  Uiso   1.00
H837   H     0.31714   0.77706   0.89991   0.00000  Uiso   1.00
H838   H     0.68058   0.22294   0.89786   0.00000  Uiso   1.00
H839   H     0.54027   0.16963   0.56119   0.00000  Uiso   1.00
H840   H     0.46240   0.83011   0.55895   0.00000  Uiso   1.00
H841   H     0.63079   0.17113   0.56040   0.00000  Uiso   1.00
H842   H     0.36699   0.82962   0.55802   0.00000  Uiso   1.00
H843   H     0.44441   0.08675   0.63106   0.00000  Uiso   1.00
H844   H     0.55784   0.91305   0.62931   0.00000  Uiso   1.00
H845   H     0.64163   0.08709   0.63043   0.00000  Uiso   1.00
H846   H     0.35567   0.91296   0.62886   0.00000  Uiso   1.00
H847   H     0.44632   0.13937   0.67237   0.00000  Uiso   1.00
H848   H     0.55588   0.86042   0.67059   0.00000  Uiso   1.00
H849   H     0.69396   0.13929   0.67078   0.00000  Uiso   1.00
H850   H     0.30720   0.86074   0.67232   0.00000  Uiso   1.00
H851   H     0.54230   0.22289   0.60172   0.00000  Uiso   1.00
H852   H     0.46004   0.77688   0.59967   0.00000  Uiso   1.00
H853   H     0.68329   0.22390   0.60021   0.00000  Uiso   1.00
H854   H     0.31819   0.77680   0.60081   0.00000  Uiso   1.00
H855   H     0.45694   0.05664   0.99867   0.00000  Uiso   1.00
H856   H     0.47300   0.94359   0.91363   0.00000  Uiso   1.00
H857   H     0.59251   0.97278   0.54922   0.00000  Uiso   1.00
H858   H     0.60122   0.99939   0.51076   0.00000  Uiso   1.00
H859   H     0.37921   0.97855   0.54979   0.00000  Uiso   1.00
H860   H     0.49149   0.00049   0.62255   0.00000  Uiso   1.00
H861   H     0.55194   0.02151   0.63263   0.00000  Uiso   1.00
H862   H     0.47264   0.02682   0.62822   0.00000  Uiso   1.00
H863   H     0.59974   0.05673   0.50132   0.00000  Uiso   1.00
H864   H     0.47060   0.94359   0.58658   0.00000  Uiso   1.00
H865   H     0.59950   0.97875   0.95033   0.00000  Uiso   1.00
H866   H     0.39809   0.99928   0.98938   0.00000  Uiso   1.00
H867   H     0.38020   0.97272   0.95096   0.00000  Uiso   1.00
H868   H     0.55416   0.02679   0.87187   0.00000  Uiso   1.00
H869   H     0.46951   0.02142   0.86752   0.00000  Uiso   1.00
H870   H     0.50897   0.00043   0.87756   0.00000  Uiso   1.00
H871   H     0.82970   0.36740   0.94176   0.00000  Uiso   1.00
H872   H     0.17123   0.63061   0.93932   0.00000  Uiso   1.00
H873   H     0.82996   0.46208   0.94093   0.00000  Uiso   1.00
H874   H     0.16986   0.54046   0.93839   0.00000  Uiso   1.00
H875   H     0.91337   0.35643   0.87114   0.00000  Uiso   1.00
H876   H     0.08707   0.64155   0.86948   0.00000  Uiso   1.00
H877   H     0.91325   0.55743   0.87078   0.00000  Uiso   1.00
H878   H     0.08682   0.44462   0.86863   0.00000  Uiso   1.00
H879   H     0.86124   0.30805   0.82738   0.00000  Uiso   1.00
H880   H     0.13926   0.69366   0.82889   0.00000  Uiso   1.00
H881   H     0.86075   0.55556   0.82922   0.00000  Uiso   1.00
H882   H     0.13945   0.44649   0.82726   0.00000  Uiso   1.00
H883   H     0.77701   0.31876   0.89876   0.00000  Uiso   1.00
H884   H     0.22399   0.68295   0.89936   0.00000  Uiso   1.00
H885   H     0.77691   0.45980   0.89991   0.00000  Uiso   1.00
H886   H     0.22312   0.54251   0.89786   0.00000  Uiso   1.00
H887   H     0.16978   0.62940   0.56119   0.00000  Uiso   1.00
H888   H     0.82999   0.36769   0.55895   0.00000  Uiso   1.00
H889   H     0.17124   0.54043   0.56040   0.00000  Uiso   1.00
H890   H     0.82949   0.46254   0.55802   0.00000  Uiso   1.00
H891   H     0.08682   0.64230   0.63106   0.00000  Uiso   1.00
H892   H     0.91298   0.35524   0.62931   0.00000  Uiso   1.00
H893   H     0.08715   0.44557   0.63043   0.00000  Uiso   1.00
H894   H     0.91291   0.55720   0.62886   0.00000  Uiso   1.00
H895   H     0.13949   0.69302   0.67237   0.00000  Uiso   1.00
H896   H     0.86032   0.30461   0.67059   0.00000  Uiso   1.00
H897   H     0.13940   0.44548   0.67078   0.00000  Uiso   1.00
H898   H     0.86065   0.55342   0.67232   0.00000  Uiso   1.00
H899   H     0.22307   0.68061   0.60172   0.00000  Uiso   1.00
H900   H     0.77672   0.31682   0.59967   0.00000  Uiso   1.00
H901   H     0.22407   0.54075   0.60021   0.00000  Uiso   1.00
H902   H     0.77664   0.45847   0.60081   0.00000  Uiso   1.00
H903   H     0.05668   0.59967   0.99867   0.00000  Uiso   1.00
H904   H     0.94354   0.47057   0.91363   0.00000  Uiso   1.00
H905   H     0.97274   0.38033   0.54922   0.00000  Uiso   1.00
H906   H     0.99938   0.39826   0.51076   0.00000  Uiso   1.00
H907   H     0.97854   0.59926   0.54979   0.00000  Uiso   1.00
H908   H     0.00051   0.50902   0.62255   0.00000  Uiso   1.00
H909   H     0.02151   0.46959   0.63263   0.00000  Uiso   1.00
H910   H     0.02683   0.55417   0.62822   0.00000  Uiso   1.00
H911   H     0.05677   0.45706   0.50132   0.00000  Uiso   1.00
H912   H     0.94354   0.47297   0.58658   0.00000  Uiso   1.00
H913   H     0.97872   0.37932   0.95033   0.00000  Uiso   1.00
H914   H     0.99928   0.60111   0.98938   0.00000  Uiso   1.00
H915   H     0.97269   0.59242   0.95096   0.00000  Uiso   1.00
H916   H     0.02679   0.47265   0.87187   0.00000  Uiso   1.00
H917   H     0.02144   0.55189   0.86752   0.00000  Uiso   1.00
H918   H     0.00043   0.49147   0.87756   0.00000  Uiso   1.00
H919   H     0.53766   0.36745   0.55823   0.00000  Uiso   1.00
H920   H     0.45944   0.63058   0.56067   0.00000  Uiso   1.00
H921   H     0.63212   0.46214   0.55907   0.00000  Uiso   1.00
H922   H     0.37058   0.54040   0.56161   0.00000  Uiso   1.00
H923   H     0.44301   0.35646   0.62886   0.00000  Uiso   1.00
H924   H     0.55454   0.64155   0.63052   0.00000  Uiso   1.00
H925   H     0.64424   0.55746   0.62922   0.00000  Uiso   1.00
H926   H     0.35772   0.44456   0.63137   0.00000  Uiso   1.00
H927   H     0.44672   0.30807   0.67262   0.00000  Uiso   1.00
H928   H     0.55447   0.69366   0.67111   0.00000  Uiso   1.00
H929   H     0.69485   0.55561   0.67078   0.00000  Uiso   1.00
H930   H     0.30697   0.44644   0.67274   0.00000  Uiso   1.00
H931   H     0.54169   0.31881   0.60123   0.00000  Uiso   1.00
H932   H     0.45903   0.68292   0.60063   0.00000  Uiso   1.00
H933   H     0.68292   0.45986   0.60009   0.00000  Uiso   1.00
H934   H     0.31938   0.54242   0.60214   0.00000  Uiso   1.00
H935   H     0.45966   0.62934   0.93881   0.00000  Uiso   1.00
H936   H     0.53768   0.36774   0.94104   0.00000  Uiso   1.00
H937   H     0.36916   0.54037   0.93959   0.00000  Uiso   1.00
H938   H     0.63305   0.46260   0.94198   0.00000  Uiso   1.00
H939   H     0.55553   0.64227   0.86894   0.00000  Uiso   1.00
H940   H     0.44220   0.35524   0.87069   0.00000  Uiso   1.00
H941   H     0.35837   0.44551   0.86957   0.00000  Uiso   1.00
H942   H     0.64435   0.55723   0.87114   0.00000  Uiso   1.00
H943   H     0.55361   0.69299   0.82763   0.00000  Uiso   1.00
H944   H     0.44421   0.30461   0.82940   0.00000  Uiso   1.00
H945   H     0.30603   0.44540   0.82922   0.00000  Uiso   1.00
H946   H     0.69283   0.55348   0.82768   0.00000  Uiso   1.00
H947   H     0.45759   0.68055   0.89828   0.00000  Uiso   1.00
H948   H     0.54004   0.31688   0.90033   0.00000  Uiso   1.00
H949   H     0.31664   0.54066   0.89979   0.00000  Uiso   1.00
H950   H     0.68187   0.45856   0.89919   0.00000  Uiso   1.00
H951   H     0.54304   0.59967   0.50132   0.00000  Uiso   1.00
H952   H     0.52702   0.47060   0.58637   0.00000  Uiso   1.00
H953   H     0.40752   0.38033   0.95078   0.00000  Uiso   1.00
H954   H     0.39881   0.39823   0.98923   0.00000  Uiso   1.00
H955   H     0.62079   0.59929   0.95021   0.00000  Uiso   1.00
H956   H     0.50852   0.50902   0.87744   0.00000  Uiso   1.00
H957   H     0.44805   0.46959   0.86737   0.00000  Uiso   1.00
H958   H     0.52736   0.55417   0.87178   0.00000  Uiso   1.00
H959   H     0.40024   0.45703   0.99867   0.00000  Uiso   1.00
H960   H     0.52942   0.47299   0.91342   0.00000  Uiso   1.00
H961   H     0.40052   0.37929   0.54967   0.00000  Uiso   1.00
H962   H     0.60189   0.60114   0.51061   0.00000  Uiso   1.00
H963   H     0.61979   0.59245   0.54903   0.00000  Uiso   1.00
H964   H     0.44583   0.47265   0.62813   0.00000  Uiso   1.00
H965   H     0.53049   0.55189   0.63248   0.00000  Uiso   1.00
H966   H     0.49103   0.49147   0.62243   0.00000  Uiso   1.00
H967   H     0.83114   0.49874   0.78589   0.00000  Uiso   1.00
H968   H     0.49566   0.24783   0.60920   0.00000  Uiso   1.00
H969   H     0.33240   0.83115   0.78589   0.00000  Uiso   1.00
H970   H     0.24784   0.49566   0.60920   0.00000  Uiso   1.00
H971   H     0.50126   0.33241   0.78589   0.00000  Uiso   1.00
H972   H     0.75218   0.24783   0.60920   0.00000  Uiso   1.00
H973   H     0.16885   0.50126   0.78589   0.00000  Uiso   1.00
H974   H     0.50434   0.75217   0.60920   0.00000  Uiso   1.00
H975   H     0.66760   0.16885   0.78589   0.00000  Uiso   1.00
H976   H     0.75216   0.50434   0.60920   0.00000  Uiso   1.00
H977   H     0.49874   0.66759   0.78589   0.00000  Uiso   1.00
H978   H     0.24782   0.75217   0.60920   0.00000  Uiso   1.00
H979   H     0.50125   0.16885   0.71411   0.00000  Uiso   1.00
H980   H     0.75216   0.50434   0.89080   0.00000  Uiso   1.00
H981   H     0.33240   0.50126   0.71411   0.00000  Uiso   1.00
H982   H     0.24782   0.75217   0.89080   0.00000  Uiso   1.00
H983   H     0.83115   0.33241   0.71411   0.00000  Uiso   1.00
H984   H     0.49566   0.24783   0.89080   0.00000  Uiso   1.00
H985   H     0.49875   0.83115   0.71411   0.00000  Uiso   1.00
H986   H     0.24784   0.49566   0.89080   0.00000  Uiso   1.00
H987   H     0.66760   0.49874   0.71411   0.00000  Uiso   1.00
H988   H     0.75218   0.24783   0.89080   0.00000  Uiso   1.00
H989   H     0.16885   0.66759   0.71411   0.00000  Uiso   1.00
H990   H     0.50434   0.75217   0.89080   0.00000  Uiso   1.00
H991   H     0.16885   0.50126   0.71411   0.00000  Uiso   1.00
H992   H     0.66760   0.16885   0.71411   0.00000  Uiso   1.00
H993   H     0.49874   0.66759   0.71411   0.00000  Uiso   1.00
H994   H     0.83114   0.49874   0.71411   0.00000  Uiso   1.00
H995   H     0.33240   0.83115   0.71411   0.00000  Uiso   1.00
H996   H     0.50126   0.33241   0.71411   0.00000  Uiso   1.00
H997   H     0.49875   0.83115   0.78589   0.00000  Uiso   1.00
H998   H     0.66760   0.49874   0.78589   0.00000  Uiso   1.00
H999   H     0.16885   0.66759   0.78589   0.00000  Uiso   1.00
H1000  H     0.50125   0.16885   0.78589   0.00000  Uiso   1.00
H1001  H     0.33240   0.50126   0.78589   0.00000  Uiso   1.00
H1002  H     0.83115   0.33241   0.78589   0.00000  Uiso   1.00
Zr1003 Zr    0.53614   0.07228   0.50000   0.00000  Uiso   1.00
Zr1004 Zr    0.54671   0.99919   0.94855   0.00000  Uiso   1.00
Zr1005 Zr    0.54310   0.00078   0.55675   0.00000  Uiso   1.00
Zr1006 Zr    0.45244   0.99911   0.55160   0.00000  Uiso   1.00
Zr1007 Zr    0.46371   0.92743   0.50018   0.00000  Uiso   1.00
Zr1008 Zr    0.45765   0.00072   0.94336   0.00000  Uiso   1.00
Zr1009 Zr    0.07233   0.53616   0.50000   0.00000  Uiso   1.00
Zr1010 Zr    0.99919   0.45253   0.94855   0.00000  Uiso   1.00
Zr1011 Zr    0.00079   0.45772   0.55675   0.00000  Uiso   1.00
Zr1012 Zr    0.99910   0.54661   0.55160   0.00000  Uiso   1.00
Zr1013 Zr    0.92737   0.46370   0.50018   0.00000  Uiso   1.00
Zr1014 Zr    0.00073   0.54306   0.94336   0.00000  Uiso   1.00
Zr1015 Zr    0.46383   0.53616   0.50000   0.00000  Uiso   1.00
Zr1016 Zr    0.45331   0.45250   0.55145   0.00000  Uiso   1.00
Zr1017 Zr    0.45692   0.45769   0.94324   0.00000  Uiso   1.00
Zr1018 Zr    0.54755   0.54664   0.94840   0.00000  Uiso   1.00
Zr1019 Zr    0.53632   0.46373   0.99982   0.00000  Uiso   1.00
Zr1020 Zr    0.54234   0.54306   0.55663   0.00000  Uiso   1.00
O1021  O     0.52155   0.96937   0.50163   0.00000  Uiso   1.00
O1022  O     0.48181   0.89590   0.54297   0.00000  Uiso   1.00
O1023  O     0.41171   0.89590   0.53983   0.00000  Uiso   1.00
O1024  O     0.48422   0.89602   0.96040   0.00000  Uiso   1.00
O1025  O     0.53708   0.94071   0.92702   0.00000  Uiso   1.00
O1026  O     0.53463   0.00121   0.88025   0.00000  Uiso   1.00
O1027  O     0.59021   0.05883   0.92047   0.00000  Uiso   1.00
O1028  O     0.46977   0.05964   0.91975   0.00000  Uiso   1.00
O1029  O     0.58722   0.10395   0.95886   0.00000  Uiso   1.00
O1030  O     0.51913   0.10433   0.95733   0.00000  Uiso   1.00
O1031  O     0.58522   0.10436   0.54264   0.00000  Uiso   1.00
O1032  O     0.51670   0.10387   0.54101   0.00000  Uiso   1.00
O1033  O     0.46861   0.05877   0.57949   0.00000  Uiso   1.00
O1034  O     0.58986   0.05973   0.58028   0.00000  Uiso   1.00
O1035  O     0.51408   0.03069   0.54476   0.00000  Uiso   1.00
O1036  O     0.57212   0.04013   0.50178   0.00000  Uiso   1.00
O1037  O     0.59891   0.00052   0.96191   0.00000  Uiso   1.00
O1038  O     0.59841   0.99838   0.54122   0.00000  Uiso   1.00
O1039  O     0.39991   0.99833   0.95892   0.00000  Uiso   1.00
O1040  O     0.51665   0.03071   0.95528   0.00000  Uiso   1.00
O1041  O     0.48139   0.95970   0.93733   0.00000  Uiso   1.00
O1042  O     0.40488   0.94085   0.92617   0.00000  Uiso   1.00
O1043  O     0.46794   0.99942   0.88118   0.00000  Uiso   1.00
O1044  O     0.41414   0.89590   0.95736   0.00000  Uiso   1.00
O1045  O     0.53150   0.99951   0.61897   0.00000  Uiso   1.00
O1046  O     0.46657   0.00124   0.61984   0.00000  Uiso   1.00
O1047  O     0.47831   0.95970   0.56287   0.00000  Uiso   1.00
O1048  O     0.53605   0.94085   0.57412   0.00000  Uiso   1.00
O1049  O     0.40345   0.94050   0.57322   0.00000  Uiso   1.00
O1050  O     0.40154   0.00038   0.53827   0.00000  Uiso   1.00
O1051  O     0.46797   0.04004   0.99828   0.00000  Uiso   1.00
O1052  O     0.44779   0.96931   0.99858   0.00000  Uiso   1.00
O1053  O     0.96936   0.44782   0.50163   0.00000  Uiso   1.00
O1054  O     0.89584   0.41408   0.54297   0.00000  Uiso   1.00
O1055  O     0.89583   0.48411   0.53983   0.00000  Uiso   1.00
O1056  O     0.89594   0.41180   0.96040   0.00000  Uiso   1.00
O1057  O     0.94064   0.40363   0.92702   0.00000  Uiso   1.00
O1058  O     0.00121   0.46661   0.88025   0.00000  Uiso   1.00
O1059  O     0.05889   0.46869   0.92047   0.00000  Uiso   1.00
O1060  O     0.05969   0.58985   0.91975   0.00000  Uiso   1.00
O1061  O     0.10402   0.51679   0.95886   0.00000  Uiso   1.00
O1062  O     0.10440   0.58520   0.95733   0.00000  Uiso   1.00
O1063  O     0.10443   0.51921   0.54264   0.00000  Uiso   1.00
O1064  O     0.10395   0.58719   0.54101   0.00000  Uiso   1.00
O1065  O     0.05881   0.59014   0.57949   0.00000  Uiso   1.00
O1066  O     0.05976   0.46993   0.58028   0.00000  Uiso   1.00
O1067  O     0.03073   0.51661   0.54476   0.00000  Uiso   1.00
O1068  O     0.04016   0.46806   0.50178   0.00000  Uiso   1.00
O1069  O     0.00052   0.40169   0.96191   0.00000  Uiso   1.00
O1070  O     0.99840   0.40005   0.54122   0.00000  Uiso   1.00
O1071  O     0.99834   0.59834   0.95892   0.00000  Uiso   1.00
O1072  O     0.03073   0.51407   0.95528   0.00000  Uiso   1.00
O1073  O     0.95967   0.47831   0.93733   0.00000  Uiso   1.00
O1074  O     0.94083   0.53590   0.92617   0.00000  Uiso   1.00
O1075  O     0.99944   0.53148   0.88118   0.00000  Uiso   1.00
O1076  O     0.89583   0.48171   0.95736   0.00000  Uiso   1.00
O1077  O     0.99951   0.46803   0.61897   0.00000  Uiso   1.00
O1078  O     0.00125   0.53465   0.61984   0.00000  Uiso   1.00
O1079  O     0.95968   0.48137   0.56287   0.00000  Uiso   1.00
O1080  O     0.94080   0.40484   0.57412   0.00000  Uiso   1.00
O1081  O     0.94045   0.53699   0.57322   0.00000  Uiso   1.00
O1082  O     0.00038   0.59877   0.53827   0.00000  Uiso   1.00
O1083  O     0.04007   0.57204   0.99828   0.00000  Uiso   1.00
O1084  O     0.96930   0.52149   0.99858   0.00000  Uiso   1.00
O1085  O     0.47844   0.44782   0.99837   0.00000  Uiso   1.00
O1086  O     0.51822   0.41410   0.95702   0.00000  Uiso   1.00
O1087  O     0.58830   0.48417   0.96016   0.00000  Uiso   1.00
O1088  O     0.51582   0.41182   0.53960   0.00000  Uiso   1.00
O1089  O     0.46295   0.40365   0.57298   0.00000  Uiso   1.00
O1090  O     0.46538   0.46661   0.61975   0.00000  Uiso   1.00
O1091  O     0.40979   0.46866   0.57953   0.00000  Uiso   1.00
O1092  O     0.53020   0.58985   0.58024   0.00000  Uiso   1.00
O1093  O     0.41274   0.51676   0.54113   0.00000  Uiso   1.00
O1094  O     0.48082   0.58517   0.54267   0.00000  Uiso   1.00
O1095  O     0.41475   0.51918   0.95736   0.00000  Uiso   1.00
O1096  O     0.48327   0.58717   0.95899   0.00000  Uiso   1.00
O1097  O     0.53137   0.59014   0.92053   0.00000  Uiso   1.00
O1098  O     0.41013   0.46991   0.91972   0.00000  Uiso   1.00
O1099  O     0.48590   0.51661   0.95525   0.00000  Uiso   1.00
O1100  O     0.42786   0.46803   0.99822   0.00000  Uiso   1.00
O1101  O     0.40111   0.40166   0.53809   0.00000  Uiso   1.00
O1102  O     0.40162   0.40005   0.95877   0.00000  Uiso   1.00
O1103  O     0.60006   0.59837   0.54107   0.00000  Uiso   1.00
O1104  O     0.48335   0.51407   0.54472   0.00000  Uiso   1.00
O1105  O     0.51862   0.47831   0.56267   0.00000  Uiso   1.00
O1106  O     0.59511   0.53592   0.57383   0.00000  Uiso   1.00
O1107  O     0.53206   0.53148   0.61882   0.00000  Uiso   1.00
O1108  O     0.58588   0.48174   0.54264   0.00000  Uiso   1.00
O1109  O     0.46849   0.46803   0.88103   0.00000  Uiso   1.00
O1110  O     0.53340   0.53465   0.88015   0.00000  Uiso   1.00
O1111  O     0.52169   0.48139   0.93712   0.00000  Uiso   1.00
O1112  O     0.46399   0.40484   0.92587   0.00000  Uiso   1.00
O1113  O     0.59656   0.53702   0.92678   0.00000  Uiso   1.00
O1114  O     0.59843   0.59877   0.96173   0.00000  Uiso   1.00
O1115  O     0.53199   0.57204   0.50172   0.00000  Uiso   1.00
O1116  O     0.55222   0.52152   0.50141   0.00000  Uiso   1.00
loop_
_geom_bond_atom_site_label_1
_geom_bond_atom_site_label_2
_geom_bond_distance
_geom_bond_site_symmetry_2
_ccdc_geom_bond_type
C1     C21     1.392   .     D
C1     C5      1.403   .     S
C1     H265    1.085   .     S
C2     C22     1.390   .     D
C2     C6      1.403   .     S
C2     H266    1.086   .     S
C3     C23     1.391   .     D
C3     C7      1.404   .     S
C3     H267    1.086   .     S
C4     C24     1.392   .     D
C4     C8      1.402   .     S
C4     H268    1.086   .     S
C5     C9      1.402   .     D
C5     C50     1.489   .     S
C6     C10     1.403   .     D
C6     C54     1.488   .     S
C7     C11     1.403   .     D
C7     C49     1.492   .     S
C8     C12     1.402   .     D
C8     C56     1.492   .     S
C9     C13     1.393   .     S
C9     H269    1.087   .     S
C10    C14     1.391   .     S
C10    H270    1.085   .     S
C11    C15     1.392   .     S
C11    H271    1.087   .     S
C12    C16     1.393   .     S
C12    H272    1.086   .     S
C13    H273    1.087   .     S
C13    C17     1.409   .     D
C14    H274    1.088   .     S
C14    C18     1.408   .     D
C15    H275    1.086   .     S
C15    C19     1.410   .     D
C16    H276    1.087   .     S
C16    C20     1.409   .     D
C17    C229    1.422   .     S
C17    C21     1.408   .     S
C18    C238    1.399   .     S
C18    C22     1.407   .     S
C19    C204    1.401   .     S
C19    C23     1.407   .     S
C20    C219    1.405   .     S
C20    C24     1.409   .     S
C21    H277    1.087   .     S
C22    H278    1.088   .     S
C23    H279    1.088   .     S
C24    H280    1.086   .     S
C25    H281    1.086   .     S
C25    C29     1.402   .     D
C25    C45     1.392   .     S
C26    H282    1.085   .     S
C26    C30     1.404   .     D
C26    C46     1.392   .     S
C27    H283    1.085   .     S
C27    C31     1.403   .     D
C27    C47     1.391   .     S
C28    H284    1.086   .     S
C28    C32     1.404   .     D
C28    C48     1.391   .     S
C29    C53     1.491   .     S
C29    C33     1.403   .     S
C30    C51     1.493   .     S
C30    C34     1.403   .     S
C31    C52     1.489   .     S
C31    C35     1.402   .     S
C32    C55     1.490   .     S
C32    C36     1.403   .     S
C33    H285    1.085   .     S
C33    C37     1.392   .     D
C34    H286    1.087   .     S
C34    C38     1.391   .     D
C35    H287    1.086   .     S
C35    C39     1.391   .     D
C36    H288    1.087   .     S
C36    C40     1.392   .     D
C37    C41     1.408   .     S
C37    H289    1.086   .     S
C38    C42     1.410   .     S
C38    H290    1.088   .     S
C39    C43     1.408   .     S
C39    H291    1.086   .     S
C40    C44     1.409   .     S
C40    H292    1.087   .     S
C41    C45     1.407   .     D
C41    C169    1.414   .     S
C42    C46     1.408   .     D
C42    C184    1.393   .     S
C43    C47     1.408   .     D
C43    C250    1.397   .     S
C44    C48     1.408   .     D
C44    C259    1.406   .     S
C45    H293    1.086   .     S
C46    H294    1.088   .     S
C47    H295    1.087   .     S
C48    H296    1.088   .     S
C49    O484    1.269   .     S
C49    O486    1.272   .     S
C50    O467    1.272   .     D
C50    O466    1.269   .     S
C51    O464    1.271   .     D
C51    O490    1.269   .     S
C52    O473    1.269   .     S
C52    O476    1.271   .     D
C53    O474    1.270   .     D
C53    O475    1.271   .     S
C54    O470    1.272   .     D
C54    O472    1.269   .     S
C55    O465    1.270   .     S
C55    O491    1.271   .     D
C56    O469    1.270   .     S
C56    O471    1.271   .     S
C57    C77     1.392   .     D
C57    C61     1.401   .     S
C57    H313    1.085   .     S
C58    C78     1.390   .     D
C58    C62     1.403   .     S
C58    H314    1.087   .     S
C59    C79     1.391   .     D
C59    C63     1.403   .     S
C59    H315    1.086   .     S
C60    C80     1.392   .     D
C60    C64     1.403   .     S
C60    H316    1.086   .     S
C61    C65     1.402   .     D
C61    C106    1.489   .     S
C62    C66     1.403   .     D
C62    C110    1.488   .     S
C63    C67     1.403   .     D
C63    C105    1.492   .     S
C64    C68     1.402   .     D
C64    C112    1.491   .     S
C65    C69     1.394   .     S
C65    H317    1.086   .     S
C66    C70     1.392   .     S
C66    H318    1.085   .     S
C67    C71     1.392   .     S
C67    H319    1.087   .     S
C68    C72     1.393   .     S
C68    H320    1.087   .     S
C69    H321    1.087   .     S
C69    C73     1.408   .     D
C70    H322    1.088   .     S
C70    C74     1.408   .     D
C71    H323    1.087   .     S
C71    C75     1.410   .     D
C72    H324    1.087   .     S
C72    C76     1.410   .     D
C73    C244    1.420   .     S
C73    C77     1.408   .     S
C74    C235    1.396   .     S
C74    C78     1.408   .     S
C75    C199    1.398   .     S
C75    C79     1.407   .     S
C76    C214    1.403   .     S
C76    C80     1.408   .     S
C77    H325    1.087   .     S
C78    H326    1.089   .     S
C79    H327    1.087   .     S
C80    H328    1.087   .     S
C81    H329    1.086   .     S
C81    C85     1.403   .     D
C81    C101    1.391   .     S
C82    H330    1.085   .     S
C82    C86     1.403   .     D
C82    C102    1.392   .     S
C83    H331    1.085   .     S
C83    C87     1.403   .     D
C83    C103    1.391   .     S
C84    H332    1.085   .     S
C84    C88     1.404   .     D
C84    C104    1.391   .     S
C85    C109    1.491   .     S
C85    C89     1.403   .     S
C86    C107    1.492   .     S
C86    C90     1.403   .     S
C87    C108    1.488   .     S
C87    C91     1.403   .     S
C88    C111    1.490   .     S
C88    C92     1.403   .     S
C89    H333    1.086   .     S
C89    C93     1.391   .     D
C90    H334    1.087   .     S
C90    C94     1.392   .     D
C91    H335    1.085   .     S
C91    C95     1.392   .     D
C92    H336    1.087   .     S
C92    C96     1.393   .     D
C93    C97     1.409   .     S
C93    H337    1.086   .     S
C94    C98     1.409   .     S
C94    H338    1.088   .     S
C95    C99     1.409   .     S
C95    H339    1.086   .     S
C96    C100    1.408   .     S
C96    H340    1.087   .     S
C97    C101    1.407   .     D
C97    C194    1.411   .     S
C98    C102    1.409   .     D
C98    C179    1.391   .     S
C99    C103    1.407   .     D
C99    C247    1.394   .     S
C100   C104    1.409   .     D
C100   C256    1.404   .     S
C101   H341    1.087   .     S
C102   H342    1.087   .     S
C103   H343    1.088   .     S
C104   H344    1.087   .     S
C105   O516    1.269   .     S
C105   O518    1.271   .     S
C106   O499    1.271   .     D
C106   O498    1.270   .     S
C107   O496    1.271   .     D
C107   O522    1.269   .     S
C108   O505    1.269   .     S
C108   O508    1.271   .     D
C109   O506    1.270   .     D
C109   O507    1.271   .     S
C110   O502    1.271   .     D
C110   O504    1.269   .     S
C111   O497    1.271   .     S
C111   O523    1.271   .     D
C112   O501    1.270   .     S
C112   O503    1.270   .     S
C113   H361    1.085   .     S
C113   C117    1.402   .     D
C113   C133    1.392   .     S
C114   H362    1.086   .     S
C114   C118    1.404   .     D
C114   C134    1.390   .     S
C115   H363    1.086   .     S
C115   C119    1.403   .     D
C115   C135    1.392   .     S
C116   H364    1.086   .     S
C116   C120    1.402   .     D
C116   C136    1.391   .     S
C117   C162    1.489   .     S
C117   C121    1.402   .     S
C118   C166    1.488   .     S
C118   C122    1.403   .     S
C119   C161    1.492   .     S
C119   C123    1.403   .     S
C120   C168    1.492   .     S
C120   C124    1.402   .     S
C121   H365    1.086   .     S
C121   C125    1.393   .     D
C122   H366    1.085   .     S
C122   C126    1.392   .     D
C123   H367    1.086   .     S
C123   C127    1.392   .     D
C124   H368    1.087   .     S
C124   C128    1.393   .     D
C125   C129    1.409   .     S
C125   H369    1.088   .     S
C126   C130    1.408   .     S
C126   H370    1.088   .     S
C127   C131    1.410   .     S
C127   H371    1.087   .     S
C128   C132    1.410   .     S
C128   H372    1.086   .     S
C129   C133    1.408   .     D
C129   C262    1.423   .     S
C130   C134    1.408   .     D
C130   C253    1.398   .     S
C131   C135    1.407   .     D
C131   C189    1.398   .     S
C132   C136    1.408   .     D
C132   C174    1.402   .     S
C133   H373    1.087   .     S
C134   H374    1.088   .     S
C135   H375    1.088   .     S
C136   H376    1.087   .     S
C137   C157    1.391   .     D
C137   C141    1.402   .     S
C137   H377    1.086   .     S
C138   C158    1.392   .     D
C138   C142    1.403   .     S
C138   H378    1.086   .     S
C139   C159    1.392   .     D
C139   C143    1.403   .     S
C139   H379    1.085   .     S
C140   C160    1.391   .     D
C140   C144    1.404   .     S
C140   H380    1.085   .     S
C141   C145    1.403   .     D
C141   C165    1.491   .     S
C142   C146    1.404   .     D
C142   C163    1.493   .     S
C143   C147    1.402   .     D
C143   C164    1.490   .     S
C144   C148    1.403   .     D
C144   C167    1.491   .     S
C145   C149    1.391   .     S
C145   H381    1.086   .     S
C146   C150    1.391   .     S
C146   H382    1.087   .     S
C147   C151    1.391   .     S
C147   H383    1.085   .     S
C148   C152    1.393   .     S
C148   H384    1.085   .     S
C149   H385    1.086   .     S
C149   C153    1.409   .     D
C150   H386    1.088   .     S
C150   C154    1.409   .     D
C151   H387    1.086   .     S
C151   C155    1.409   .     D
C152   H388    1.087   .     S
C152   C156    1.409   .     D
C153   C224    1.414   .     S
C153   C157    1.408   .     S
C154   C209    1.394   .     S
C154   C158    1.408   .     S
C155   C241    1.394   .     S
C155   C159    1.407   .     S
C156   C232    1.403   .     S
C156   C160    1.409   .     S
C157   H389    1.087   .     S
C158   H390    1.087   .     S
C159   H391    1.087   .     S
C160   H392    1.088   .     S
C161   O550    1.271   .     S
C161   O548    1.269   .     D
C162   O530    1.270   .     S
C162   O531    1.271   .     D
C163   O554    1.269   .     S
C163   O528    1.271   .     D
C164   O540    1.270   .     D
C164   O537    1.269   .     S
C165   O539    1.271   .     D
C165   O538    1.270   .     S
C166   O536    1.269   .     S
C166   O534    1.271   .     D
C167   O555    1.271   .     S
C167   O529    1.270   .     D
C168   O535    1.271   .     S
C168   O533    1.270   .     D
C169   C172    1.422   .     S
C169   C170    1.448   .     D
C170   C173    1.411   .     S
C170   C171    1.378   .     S
C171   H421    1.053   .     S
C171   C240    1.466   .     D
C172   H410    1.068   .     S
C172   C262    1.422   .     D
C173   C263    1.412   .     D
C173   C213    1.558   .     S
C174   C177    1.420   .     D
C174   C175    1.448   .     S
C175   C178    1.411   .     D
C175   C176    1.376   .     S
C176   H423    1.053   .     S
C176   C243    1.466   .     D
C177   H412    1.068   .     S
C177   C247    1.421   .     S
C178   C248    1.411   .     S
C178   C218    1.558   .     S
C179   C182    1.421   .     S
C179   C180    1.448   .     D
C180   C183    1.411   .     S
C180   C181    1.377   .     S
C181   H425    1.054   .     S
C181   C246    1.466   .     D
C182   H414    1.068   .     S
C182   C250    1.422   .     D
C183   C251    1.411   .     D
C183   C223    1.558   .     S
C184   C187    1.422   .     D
C184   C185    1.448   .     S
C185   C188    1.411   .     D
C185   C186    1.378   .     S
C186   H427    1.053   .     S
C186   C231    1.466   .     D
C187   H416    1.068   .     S
C187   C253    1.422   .     S
C188   C254    1.412   .     S
C188   C228    1.558   .     S
C189   C192    1.420   .     S
C189   C190    1.448   .     D
C190   C193    1.411   .     S
C190   C191    1.376   .     S
C191   H429    1.053   .     S
C191   C234    1.466   .     D
C192   H418    1.068   .     S
C192   C256    1.421   .     D
C193   C257    1.411   .     D
C193   C203    1.558   .     S
C194   C197    1.421   .     S
C194   C195    1.448   .     D
C195   C198    1.411   .     S
C195   C196    1.377   .     S
C196   H431    1.054   .     S
C196   C237    1.466   .     D
C197   H420    1.068   .     S
C197   C259    1.422   .     D
C198   C260    1.411   .     D
C198   C208    1.558   .     S
C199   C200    1.448   .     S
C199   C202    1.420   .     D
C200   C201    1.376   .     S
C200   C203    1.411   .     D
C201   C258    1.466   .     D
C201   H409    1.053   .     S
C202   C232    1.421   .     S
C202   H422    1.068   .     S
C203   C233    1.411   .     S
C204   C205    1.448   .     D
C204   C207    1.421   .     S
C205   C206    1.377   .     S
C205   C208    1.411   .     S
C206   C261    1.466   .     D
C206   H411    1.053   .     S
C207   C235    1.421   .     D
C207   H424    1.068   .     S
C208   C236    1.411   .     D
C209   C210    1.448   .     S
C209   C212    1.422   .     D
C210   C211    1.377   .     S
C210   C213    1.412   .     D
C211   C264    1.466   .     D
C211   H413    1.054   .     S
C212   C238    1.422   .     S
C212   H426    1.068   .     S
C213   C239    1.411   .     S
C214   C215    1.448   .     S
C214   C217    1.420   .     D
C215   C216    1.376   .     S
C215   C218    1.411   .     D
C216   C249    1.466   .     D
C216   H415    1.053   .     S
C217   C241    1.421   .     S
C217   H428    1.068   .     S
C218   C242    1.411   .     S
C219   C220    1.448   .     D
C219   C222    1.421   .     S
C220   C221    1.377   .     S
C220   C223    1.411   .     S
C221   C252    1.466   .     D
C221   H417    1.053   .     S
C222   C244    1.421   .     D
C222   H430    1.068   .     S
C223   C245    1.411   .     D
C224   C225    1.448   .     S
C224   C227    1.422   .     D
C225   C226    1.377   .     S
C225   C228    1.412   .     D
C226   C255    1.466   .     D
C226   H419    1.054   .     S
C227   C229    1.422   .     S
C227   H432    1.068   .     S
C228   C230    1.411   .     S
C229   C230    1.448   .     D
C230   C231    1.378   .     S
C231   H439    1.053   .     S
C232   C233    1.448   .     D
C233   C234    1.376   .     S
C234   H440    1.053   .     S
C235   C236    1.448   .     S
C236   C237    1.377   .     S
C237   H441    1.054   .     S
C238   C239    1.448   .     D
C239   C240    1.378   .     S
C240   H442    1.053   .     S
C241   C242    1.448   .     D
C242   C243    1.376   .     S
C243   H443    1.053   .     S
C244   C245    1.448   .     S
C245   C246    1.377   .     S
C246   H444    1.054   .     S
C247   C248    1.448   .     D
C248   C249    1.376   .     S
C249   H433    1.053   .     S
C250   C251    1.448   .     S
C251   C252    1.377   .     S
C252   H434    1.053   .     S
C253   C254    1.448   .     D
C254   C255    1.377   .     S
C255   H435    1.054   .     S
C256   C257    1.448   .     S
C257   C258    1.376   .     S
C258   H436    1.053   .     S
C259   C260    1.448   .     S
C260   C261    1.377   .     S
C261   H437    1.053   .     S
C262   C263    1.448   .     S
C263   C264    1.377   .     S
C264   H438    1.054   .     S
H297   O493    0.963   .     S
H298   O483    0.964   .     S
H299   O480    0.966   .     S
H300   O480    1.015   .     S
H301   O492    0.962   1_565 S
H302   O488    1.015   .     S
H303   O487    0.963   1_545 S
H304   O488    0.967   .     S
H305   O478    0.963   .     S
H306   O489    0.964   .     S
H307   O479    0.963   1_565 S
H308   O481    1.015   .     S
H309   O481    0.966   .     S
H310   O468    0.967   .     S
H311   O485    0.963   1_545 S
H312   O468    1.014   .     S
H345   O525    0.964   .     S
H346   O515    0.964   .     S
H347   O512    0.967   .     S
H348   O512    1.015   .     S
H349   O524    0.962   1_655 S
H350   O520    1.015   .     S
H351   O519    0.963   1_455 S
H352   O520    0.966   .     S
H353   O510    0.963   .     S
H354   O521    0.964   .     S
H355   O511    0.963   1_655 S
H356   O513    1.015   .     S
H357   O513    0.966   .     S
H358   O500    0.966   .     S
H359   O517    0.963   1_455 S
H360   O500    1.014   .     S
H393   O557    0.964   .     S
H394   O547    0.964   .     S
H395   O544    0.966   .     S
H396   O544    1.015   .     S
H397   O556    0.963   .     S
H398   O552    1.014   .     S
H399   O551    0.963   .     S
H400   O552    0.966   .     S
H401   O542    0.963   .     S
H402   O553    0.964   .     S
H403   O543    0.963   .     S
H404   O545    1.015   .     S
H405   O545    0.967   .     S
H406   O532    0.967   .     S
H407   O549    0.963   .     S
H408   O532    1.014   .     S
Zr445  O478    2.361   .     S
Zr445  O474    2.243   .     S
Zr445  O473    2.231   .     S
Zr445  O477    2.069   .     S
Zr445  O1040   2.068   1_554 S
Zr445  O1030   2.231   1_554 S
Zr445  O1029   2.247   1_554 S
Zr445  O1051   2.362   1_554 S
Zr446  O467    2.287   .     S
Zr446  O483    2.308   .     S
Zr446  O1021   2.081   .     S
Zr446  O1036   2.273   1_565 S
Zr446  O468    2.326   1_565 S
Zr446  O469    2.331   1_565 S
Zr446  O482    2.144   1_565 S
Zr446  O479    2.107   1_565 S
Zr447  O478    2.307   .     S
Zr447  O477    2.079   .     S
Zr447  O476    2.292   .     S
Zr447  O463    2.140   1_545 S
Zr447  O480    2.318   1_545 S
Zr447  O489    2.279   1_545 S
Zr447  O490    2.341   1_545 S
Zr447  O487    2.110   1_545 S
Zr448  O489    2.307   .     S
Zr448  O491    2.292   .     S
Zr448  O492    2.107   1_565 S
Zr448  O477    2.146   1_565 S
Zr448  O475    2.329   1_565 S
Zr448  O488    2.324   1_565 S
Zr448  O1051   2.275   1_564 S
Zr448  O1052   2.080   1_554 S
Zr449  O463    2.070   .     S
Zr449  O465    2.240   .     S
Zr449  O464    2.245   .     S
Zr449  O489    2.361   .     S
Zr449  O1041   2.366   1_554 S
Zr449  O1044   2.244   1_554 S
Zr449  O1024   2.241   1_554 S
Zr449  O1052   2.069   1_554 S
Zr450  O470    2.294   .     S
Zr450  O482    2.080   .     S
Zr450  O493    2.305   .     S
Zr450  O485    2.108   1_545 S
Zr450  O484    2.336   1_545 S
Zr450  O483    2.278   1_545 S
Zr450  O481    2.320   1_545 S
Zr450  O494    2.143   1_545 S
Zr451  O510    2.361   .     S
Zr451  O506    2.244   .     S
Zr451  O505    2.230   .     S
Zr451  O509    2.068   .     S
Zr451  O1072   2.068   1_554 S
Zr451  O1062   2.231   1_554 S
Zr451  O1061   2.246   1_554 S
Zr451  O1083   2.361   1_554 S
Zr452  O499    2.288   .     S
Zr452  O515    2.308   .     S
Zr452  O1053   2.081   .     S
Zr452  O1068   2.273   1_655 S
Zr452  O500    2.326   1_655 S
Zr452  O501    2.332   1_655 S
Zr452  O514    2.144   1_655 S
Zr452  O511    2.108   1_655 S
Zr453  O510    2.306   .     S
Zr453  O509    2.079   .     S
Zr453  O508    2.292   .     S
Zr453  O495    2.140   1_455 S
Zr453  O512    2.318   1_455 D
Zr453  O521    2.278   1_455 S
Zr453  O522    2.342   1_455 S
Zr453  O519    2.109   1_455 S
Zr454  O521    2.307   .     S
Zr454  O523    2.292   .     S
Zr454  O524    2.108   1_655 S
Zr454  O509    2.146   1_655 S
Zr454  O507    2.330   1_655 S
Zr454  O520    2.323   1_655 D
Zr454  O1083   2.275   1_654 D
Zr454  O1084   2.079   1_554 S
Zr455  O495    2.071   .     S
Zr455  O497    2.239   .     S
Zr455  O496    2.245   .     S
Zr455  O521    2.361   .     S
Zr455  O1073   2.366   1_554 S
Zr455  O1076   2.243   1_554 S
Zr455  O1056   2.240   1_554 S
Zr455  O1084   2.069   1_554 S
Zr456  O502    2.293   .     S
Zr456  O514    2.081   .     S
Zr456  O525    2.304   .     S
Zr456  O517    2.108   1_455 S
Zr456  O516    2.335   1_455 S
Zr456  O515    2.278   1_455 S
Zr456  O513    2.319   1_455 S
Zr456  O526    2.143   1_455 S
Zr457  O557    2.361   .     S
Zr457  O535    2.247   .     S
Zr457  O536    2.230   .     S
Zr457  O546    2.068   .     S
Zr457  O1099   2.069   1_554 S
Zr457  O1095   2.231   1_554 S
Zr457  O1096   2.243   1_554 S
Zr457  O1100   2.362   1_554 S
Zr458  O543    2.108   .     S
Zr458  O546    2.145   .     S
Zr458  O547    2.307   .     S
Zr458  O531    2.287   .     S
Zr458  O533    2.331   .     S
Zr458  O532    2.326   .     S
Zr458  O1100   2.273   1_554 S
Zr458  O1085   2.081   1_554 S
Zr459  O551    2.109   .     S
Zr459  O540    2.293   .     S
Zr459  O554    2.341   .     S
Zr459  O553    2.278   .     S
Zr459  O541    2.080   .     S
Zr459  O544    2.317   .     S
Zr459  O542    2.307   .     S
Zr459  O527    2.139   .     S
Zr460  O552    2.324   .     S
Zr460  O539    2.329   .     S
Zr460  O555    2.292   .     S
Zr460  O553    2.307   .     S
Zr460  O541    2.146   .     S
Zr460  O556    2.107   .     S
Zr460  O1116   2.079   .     S
Zr460  O1115   2.275   .     S
Zr461  O553    2.361   .     S
Zr461  O528    2.245   .     S
Zr461  O529    2.240   .     S
Zr461  O527    2.071   .     S
Zr461  O1116   2.069   .     S
Zr461  O1088   2.241   .     S
Zr461  O1108   2.243   .     D
Zr461  O1105   2.366   .     S
Zr462  O558    2.143   .     S
Zr462  O557    2.304   .     S
Zr462  O545    2.319   .     S
Zr462  O546    2.080   .     S
Zr462  O547    2.278   .     S
Zr462  O548    2.336   .     S
Zr462  O534    2.293   .     S
Zr462  O549    2.108   .     S
O463   Zr447   2.140   1_565 S
O463   Zr1004  2.081   1_554 S
O466   Zr1007  2.241   .     S
O468   Zr446   2.326   1_545 S
O469   Zr446   2.331   1_545 S
O471   Zr1003  2.247   .     S
O472   Zr1003  2.231   .     S
O475   Zr448   2.329   1_545 S
O477   Zr448   2.146   1_545 S
O478   Zr1004  2.273   1_544 S
O479   Zr446   2.107   1_545 S
O479   H307    0.963   1_545 S
O480   Zr447   2.318   1_565 S
O481   Zr450   2.320   1_565 S
O482   Zr1003  2.068   .     S
O482   Zr446   2.144   1_545 S
O483   Zr1007  2.366   .     S
O483   Zr450   2.278   1_565 S
O484   Zr450   2.336   1_565 S
O485   H311    0.963   1_565 S
O485   Zr450   2.108   1_565 S
O486   Zr1007  2.244   .     S
O487   Zr447   2.110   1_565 S
O487   H303    0.963   1_565 S
O488   Zr448   2.324   1_545 S
O489   Zr447   2.279   1_565 S
O490   Zr447   2.341   1_565 S
O492   H301    0.962   1_545 S
O492   Zr448   2.107   1_545 S
O493   Zr1003  2.362   .     S
O493   Zr1006  2.275   1_545 S
O494   Zr1007  2.069   .     S
O494   Zr1006  2.080   .     S
O494   Zr450   2.143   1_565 S
O495   Zr453   2.140   1_655 S
O495   Zr1010  2.081   1_554 S
O498   Zr1013  2.240   .     S
O500   Zr452   2.326   1_455 S
O501   Zr452   2.332   1_455 S
O503   Zr1009  2.246   .     S
O504   Zr1009  2.231   .     S
O507   Zr454   2.330   1_455 S
O509   Zr454   2.146   1_455 S
O510   Zr1010  2.273   1_454 S
O511   Zr452   2.108   1_455 S
O511   H355    0.963   1_455 S
O512   Zr453   2.318   1_655 D
O513   Zr456   2.319   1_655 S
O514   Zr1009  2.068   .     S
O514   Zr452   2.144   1_455 S
O515   Zr1013  2.366   .     S
O515   Zr456   2.278   1_655 S
O516   Zr456   2.335   1_655 S
O517   H359    0.963   1_655 S
O517   Zr456   2.108   1_655 S
O518   Zr1013  2.243   .     S
O519   Zr453   2.109   1_655 S
O519   H351    0.963   1_655 S
O520   Zr454   2.323   1_455 D
O521   Zr453   2.278   1_655 S
O522   Zr453   2.342   1_655 S
O524   H349    0.962   1_455 S
O524   Zr454   2.108   1_455 S
O525   Zr1009  2.361   .     S
O525   Zr1012  2.275   1_455 D
O526   Zr1013  2.069   .     S
O526   Zr1012  2.079   .     S
O526   Zr456   2.143   1_655 S
O527   Zr1016  2.081   .     S
O530   Zr1019  2.241   1_554 S
O537   Zr1015  2.231   .     S
O538   Zr1015  2.243   .     S
O541   Zr1015  2.069   .     S
O542   Zr1015  2.362   .     S
O542   Zr1016  2.273   .     S
O547   Zr1019  2.366   1_554 S
O550   Zr1019  2.243   1_554 D
O557   Zr1018  2.275   1_554 S
O558   Zr1018  2.079   1_554 S
O558   Zr1019  2.069   1_554 S
C559   C579    1.392   .     D
C559   C563    1.403   .     S
C559   H823    1.085   .     S
C560   C580    1.390   .     D
C560   C564    1.403   .     S
C560   H824    1.086   .     S
C561   C581    1.391   .     D
C561   C565    1.404   .     S
C561   H825    1.086   .     S
C562   C582    1.392   .     D
C562   C566    1.402   .     S
C562   H826    1.086   .     S
C563   C567    1.402   .     D
C563   C608    1.489   .     S
C564   C568    1.403   .     D
C564   C612    1.488   .     S
C565   C569    1.403   .     D
C565   C607    1.492   .     S
C566   C570    1.402   .     D
C566   C614    1.492   .     S
C567   C571    1.393   .     S
C567   H827    1.087   .     S
C568   C572    1.391   .     S
C568   H828    1.085   .     S
C569   C573    1.392   .     S
C569   H829    1.087   .     S
C570   C574    1.393   .     S
C570   H830    1.086   .     S
C571   H831    1.087   .     S
C571   C575    1.409   .     D
C572   H832    1.088   .     S
C572   C576    1.408   .     D
C573   H833    1.086   .     S
C573   C577    1.410   .     D
C574   H834    1.087   .     S
C574   C578    1.409   .     D
C575   C787    1.422   .     S
C575   C579    1.408   .     S
C576   C796    1.399   .     S
C576   C580    1.407   .     S
C577   C762    1.401   .     S
C577   C581    1.407   .     S
C578   C777    1.405   .     S
C578   C582    1.409   .     S
C579   H835    1.087   .     S
C580   H836    1.088   .     S
C581   H837    1.088   .     S
C582   H838    1.086   .     S
C583   H839    1.086   .     S
C583   C587    1.402   .     D
C583   C603    1.392   .     S
C584   H840    1.085   .     S
C584   C588    1.404   .     D
C584   C604    1.392   .     S
C585   H841    1.085   .     S
C585   C589    1.403   .     D
C585   C605    1.391   .     S
C586   H842    1.086   .     S
C586   C590    1.404   .     D
C586   C606    1.391   .     S
C587   C611    1.491   .     S
C587   C591    1.403   .     S
C588   C609    1.493   .     S
C588   C592    1.403   .     S
C589   C610    1.489   .     S
C589   C593    1.402   .     S
C590   C613    1.490   .     S
C590   C594    1.403   .     S
C591   H843    1.085   .     S
C591   C595    1.392   .     D
C592   H844    1.087   .     S
C592   C596    1.391   .     D
C593   H845    1.086   .     S
C593   C597    1.391   .     D
C594   H846    1.087   .     S
C594   C598    1.392   .     D
C595   C599    1.408   .     S
C595   H847    1.086   .     S
C596   C600    1.410   .     S
C596   H848    1.088   .     S
C597   C601    1.408   .     S
C597   H849    1.086   .     S
C598   C602    1.409   .     S
C598   H850    1.087   .     S
C599   C603    1.407   .     D
C599   C727    1.414   .     S
C600   C604    1.408   .     D
C600   C742    1.393   .     S
C601   C605    1.408   .     D
C601   C808    1.397   .     S
C602   C606    1.408   .     D
C602   C817    1.406   .     S
C603   H851    1.086   .     S
C604   H852    1.088   .     S
C605   H853    1.087   .     S
C606   H854    1.088   .     S
C607   O1042   1.269   .     S
C607   O1044   1.272   .     S
C608   O1025   1.272   .     D
C608   O1024   1.269   .     S
C609   O1022   1.271   .     D
C609   O1048   1.269   .     S
C610   O1031   1.269   .     S
C610   O1034   1.271   .     D
C611   O1032   1.270   .     D
C611   O1033   1.271   .     S
C612   O1028   1.272   .     D
C612   O1030   1.269   .     S
C613   O1023   1.270   .     S
C613   O1049   1.271   .     D
C614   O1027   1.270   .     S
C614   O1029   1.271   .     S
C615   C635    1.392   .     D
C615   C619    1.401   .     S
C615   H871    1.085   .     S
C616   C636    1.390   .     D
C616   C620    1.403   .     S
C616   H872    1.087   .     S
C617   C637    1.391   .     D
C617   C621    1.403   .     S
C617   H873    1.086   .     S
C618   C638    1.392   .     D
C618   C622    1.403   .     S
C618   H874    1.086   .     S
C619   C623    1.402   .     D
C619   C664    1.489   .     S
C620   C624    1.403   .     D
C620   C668    1.488   .     S
C621   C625    1.403   .     D
C621   C663    1.492   .     S
C622   C626    1.402   .     D
C622   C670    1.491   .     S
C623   C627    1.394   .     S
C623   H875    1.086   .     S
C624   C628    1.392   .     S
C624   H876    1.085   .     S
C625   C629    1.392   .     S
C625   H877    1.087   .     S
C626   C630    1.393   .     S
C626   H878    1.087   .     S
C627   H879    1.087   .     S
C627   C631    1.408   .     D
C628   H880    1.088   .     S
C628   C632    1.408   .     D
C629   H881    1.087   .     S
C629   C633    1.410   .     D
C630   H882    1.087   .     S
C630   C634    1.410   .     D
C631   C802    1.420   .     S
C631   C635    1.408   .     S
C632   C793    1.396   .     S
C632   C636    1.408   .     S
C633   C757    1.398   .     S
C633   C637    1.407   .     S
C634   C772    1.403   .     S
C634   C638    1.408   .     S
C635   H883    1.087   .     S
C636   H884    1.089   .     S
C637   H885    1.087   .     S
C638   H886    1.087   .     S
C639   H887    1.086   .     S
C639   C643    1.403   .     D
C639   C659    1.391   .     S
C640   H888    1.085   .     S
C640   C644    1.403   .     D
C640   C660    1.392   .     S
C641   H889    1.085   .     S
C641   C645    1.403   .     D
C641   C661    1.391   .     S
C642   H890    1.085   .     S
C642   C646    1.404   .     D
C642   C662    1.391   .     S
C643   C667    1.491   .     S
C643   C647    1.403   .     S
C644   C665    1.492   .     S
C644   C648    1.403   .     S
C645   C666    1.488   .     S
C645   C649    1.403   .     S
C646   C669    1.490   .     S
C646   C650    1.403   .     S
C647   H891    1.086   .     S
C647   C651    1.391   .     D
C648   H892    1.087   .     S
C648   C652    1.392   .     D
C649   H893    1.085   .     S
C649   C653    1.392   .     D
C650   H894    1.087   .     S
C650   C654    1.393   .     D
C651   C655    1.409   .     S
C651   H895    1.086   .     S
C652   C656    1.409   .     S
C652   H896    1.088   .     S
C653   C657    1.409   .     S
C653   H897    1.086   .     S
C654   C658    1.408   .     S
C654   H898    1.087   .     S
C655   C659    1.407   .     D
C655   C752    1.411   .     S
C656   C660    1.409   .     D
C656   C737    1.391   .     S
C657   C661    1.407   .     D
C657   C805    1.394   .     S
C658   C662    1.409   .     D
C658   C814    1.404   .     S
C659   H899    1.087   .     S
C660   H900    1.087   .     S
C661   H901    1.088   .     S
C662   H902    1.087   .     S
C663   O1074   1.269   .     S
C663   O1076   1.271   .     S
C664   O1057   1.271   .     D
C664   O1056   1.270   .     S
C665   O1054   1.271   .     D
C665   O1080   1.269   .     S
C666   O1063   1.269   .     S
C666   O1066   1.271   .     D
C667   O1064   1.270   .     D
C667   O1065   1.271   .     S
C668   O1060   1.271   .     D
C668   O1062   1.269   .     S
C669   O1055   1.271   .     S
C669   O1081   1.271   .     D
C670   O1059   1.270   .     S
C670   O1061   1.270   .     S
C671   H919    1.085   .     S
C671   C675    1.402   .     D
C671   C691    1.392   .     S
C672   H920    1.086   .     S
C672   C676    1.404   .     D
C672   C692    1.390   .     S
C673   H921    1.086   .     S
C673   C677    1.403   .     D
C673   C693    1.392   .     S
C674   H922    1.086   .     S
C674   C678    1.402   .     D
C674   C694    1.391   .     S
C675   C720    1.489   .     S
C675   C679    1.402   .     S
C676   C724    1.488   .     S
C676   C680    1.403   .     S
C677   C719    1.492   .     S
C677   C681    1.403   .     S
C678   C726    1.492   .     S
C678   C682    1.402   .     S
C679   H923    1.086   .     S
C679   C683    1.393   .     D
C680   H924    1.085   .     S
C680   C684    1.392   .     D
C681   H925    1.086   .     S
C681   C685    1.392   .     D
C682   H926    1.087   .     S
C682   C686    1.393   .     D
C683   C687    1.409   .     S
C683   H927    1.088   .     S
C684   C688    1.408   .     S
C684   H928    1.088   .     S
C685   C689    1.410   .     S
C685   H929    1.087   .     S
C686   C690    1.410   .     S
C686   H930    1.086   .     S
C687   C691    1.408   .     D
C687   C820    1.423   .     S
C688   C692    1.408   .     D
C688   C811    1.398   .     S
C689   C693    1.407   .     D
C689   C747    1.398   .     S
C690   C694    1.408   .     D
C690   C732    1.402   .     S
C691   H931    1.087   .     S
C692   H932    1.088   .     S
C693   H933    1.088   .     S
C694   H934    1.087   .     S
C695   C715    1.391   .     D
C695   C699    1.402   .     S
C695   H935    1.086   .     S
C696   C716    1.392   .     D
C696   C700    1.403   .     S
C696   H936    1.086   .     S
C697   C717    1.392   .     D
C697   C701    1.403   .     S
C697   H937    1.085   .     S
C698   C718    1.391   .     D
C698   C702    1.404   .     S
C698   H938    1.085   .     S
C699   C703    1.403   .     D
C699   C723    1.491   .     S
C700   C704    1.404   .     D
C700   C721    1.493   .     S
C701   C705    1.402   .     D
C701   C722    1.490   .     S
C702   C706    1.403   .     D
C702   C725    1.491   .     S
C703   C707    1.391   .     S
C703   H939    1.086   .     S
C704   C708    1.391   .     S
C704   H940    1.087   .     S
C705   C709    1.391   .     S
C705   H941    1.085   .     S
C706   C710    1.393   .     S
C706   H942    1.085   .     S
C707   H943    1.086   .     S
C707   C711    1.409   .     D
C708   H944    1.088   .     S
C708   C712    1.409   .     D
C709   H945    1.086   .     S
C709   C713    1.409   .     D
C710   H946    1.087   .     S
C710   C714    1.409   .     D
C711   C782    1.414   .     S
C711   C715    1.408   .     S
C712   C767    1.394   .     S
C712   C716    1.408   .     S
C713   C799    1.394   .     S
C713   C717    1.407   .     S
C714   C790    1.403   .     S
C714   C718    1.409   .     S
C715   H947    1.087   .     S
C716   H948    1.087   .     S
C717   H949    1.087   .     S
C718   H950    1.088   .     S
C719   O1108   1.271   .     S
C719   O1106   1.269   .     D
C720   O1088   1.270   .     S
C720   O1089   1.271   .     D
C721   O1112   1.269   .     S
C721   O1086   1.271   .     D
C722   O1098   1.270   .     D
C722   O1095   1.269   .     S
C723   O1097   1.271   .     D
C723   O1096   1.270   .     S
C724   O1094   1.269   .     S
C724   O1092   1.271   .     D
C725   O1113   1.271   .     S
C725   O1087   1.270   .     D
C726   O1093   1.271   .     S
C726   O1091   1.270   .     D
C727   C730    1.422   .     S
C727   C728    1.448   .     D
C728   C731    1.411   .     S
C728   C729    1.378   .     S
C729   H979    1.053   .     S
C729   C798    1.466   .     D
C730   H968    1.068   .     S
C730   C820    1.422   .     D
C731   C821    1.412   .     D
C731   C771    1.558   .     S
C732   C735    1.420   .     D
C732   C733    1.448   .     S
C733   C736    1.411   .     D
C733   C734    1.376   .     S
C734   H981    1.053   .     S
C734   C801    1.466   .     D
C735   H970    1.068   .     S
C735   C805    1.421   .     S
C736   C806    1.411   .     S
C736   C776    1.558   .     S
C737   C740    1.421   .     S
C737   C738    1.448   .     D
C738   C741    1.411   .     S
C738   C739    1.377   .     S
C739   H983    1.054   .     S
C739   C804    1.466   .     D
C740   H972    1.068   .     S
C740   C808    1.422   .     D
C741   C809    1.411   .     D
C741   C781    1.558   .     S
C742   C745    1.422   .     D
C742   C743    1.448   .     S
C743   C746    1.411   .     D
C743   C744    1.378   .     S
C744   H985    1.053   .     S
C744   C789    1.466   .     D
C745   H974    1.068   .     S
C745   C811    1.422   .     S
C746   C812    1.412   .     S
C746   C786    1.558   .     S
C747   C750    1.420   .     S
C747   C748    1.448   .     D
C748   C751    1.411   .     S
C748   C749    1.376   .     S
C749   H987    1.053   .     S
C749   C792    1.466   .     D
C750   H976    1.068   .     S
C750   C814    1.421   .     D
C751   C815    1.411   .     D
C751   C761    1.558   .     S
C752   C755    1.421   .     S
C752   C753    1.448   .     D
C753   C756    1.411   .     S
C753   C754    1.377   .     S
C754   H989    1.054   .     S
C754   C795    1.466   .     D
C755   H978    1.068   .     S
C755   C817    1.422   .     D
C756   C818    1.411   .     D
C756   C766    1.558   .     S
C757   C758    1.448   .     S
C757   C760    1.420   .     D
C758   C759    1.376   .     S
C758   C761    1.411   .     D
C759   C816    1.466   .     D
C759   H967    1.053   .     S
C760   C790    1.421   .     S
C760   H980    1.068   .     S
C761   C791    1.411   .     S
C762   C763    1.448   .     D
C762   C765    1.421   .     S
C763   C764    1.377   .     S
C763   C766    1.411   .     S
C764   C819    1.466   .     D
C764   H969    1.053   .     S
C765   C793    1.421   .     D
C765   H982    1.068   .     S
C766   C794    1.411   .     D
C767   C768    1.448   .     S
C767   C770    1.422   .     D
C768   C769    1.377   .     S
C768   C771    1.412   .     D
C769   C822    1.466   .     D
C769   H971    1.054   .     S
C770   C796    1.422   .     S
C770   H984    1.068   .     S
C771   C797    1.411   .     S
C772   C773    1.448   .     S
C772   C775    1.420   .     D
C773   C774    1.376   .     S
C773   C776    1.411   .     D
C774   C807    1.466   .     D
C774   H973    1.053   .     S
C775   C799    1.421   .     S
C775   H986    1.068   .     S
C776   C800    1.411   .     S
C777   C778    1.448   .     D
C777   C780    1.421   .     S
C778   C779    1.377   .     S
C778   C781    1.411   .     S
C779   C810    1.466   .     D
C779   H975    1.053   .     S
C780   C802    1.421   .     D
C780   H988    1.068   .     S
C781   C803    1.411   .     D
C782   C783    1.448   .     S
C782   C785    1.422   .     D
C783   C784    1.377   .     S
C783   C786    1.412   .     D
C784   C813    1.466   .     D
C784   H977    1.054   .     S
C785   C787    1.422   .     S
C785   H990    1.068   .     S
C786   C788    1.411   .     S
C787   C788    1.448   .     D
C788   C789    1.378   .     S
C789   H997    1.053   .     S
C790   C791    1.448   .     D
C791   C792    1.376   .     S
C792   H998    1.053   .     S
C793   C794    1.448   .     S
C794   C795    1.377   .     S
C795   H999    1.054   .     S
C796   C797    1.448   .     D
C797   C798    1.378   .     S
C798   H1000   1.053   .     S
C799   C800    1.448   .     D
C800   C801    1.376   .     S
C801   H1001   1.053   .     S
C802   C803    1.448   .     S
C803   C804    1.377   .     S
C804   H1002   1.054   .     S
C805   C806    1.448   .     D
C806   C807    1.376   .     S
C807   H991    1.053   .     S
C808   C809    1.448   .     S
C809   C810    1.377   .     S
C810   H992    1.053   .     S
C811   C812    1.448   .     D
C812   C813    1.377   .     S
C813   H993    1.054   .     S
C814   C815    1.448   .     S
C815   C816    1.376   .     S
C816   H994    1.053   .     S
C817   C818    1.448   .     S
C818   C819    1.377   .     S
C819   H995    1.053   .     S
C820   C821    1.448   .     S
C821   C822    1.377   .     S
C822   H996    1.054   .     S
H855   O1051   0.963   .     S
H856   O1041   0.964   .     S
H857   O1038   0.966   .     S
H858   O1038   1.015   .     S
H859   O1050   0.962   1_565 S
H860   O1046   1.015   .     S
H861   O1045   0.963   1_545 S
H862   O1046   0.967   .     S
H863   O1036   0.963   .     S
H864   O1047   0.964   .     S
H865   O1037   0.963   1_565 S
H866   O1039   1.015   .     S
H867   O1039   0.966   .     S
H868   O1026   0.967   .     S
H869   O1043   0.963   1_545 S
H870   O1026   1.014   .     S
H903   O1083   0.964   .     S
H904   O1073   0.964   .     S
H905   O1070   0.967   .     S
H906   O1070   1.015   .     S
H907   O1082   0.962   1_655 S
H908   O1078   1.015   .     S
H909   O1077   0.963   1_455 S
H910   O1078   0.966   .     S
H911   O1068   0.963   .     S
H912   O1079   0.964   .     S
H913   O1069   0.963   1_655 S
H914   O1071   1.015   .     S
H915   O1071   0.966   .     S
H916   O1058   0.966   .     S
H917   O1075   0.963   1_455 S
H918   O1058   1.014   .     S
H951   O1115   0.964   .     S
H952   O1105   0.964   .     S
H953   O1102   0.966   .     S
H954   O1102   1.015   .     S
H955   O1114   0.963   .     S
H956   O1110   1.014   .     S
H957   O1109   0.963   .     S
H958   O1110   0.966   .     S
H959   O1100   0.963   .     S
H960   O1111   0.964   .     S
H961   O1101   0.963   .     S
H962   O1103   1.015   .     S
H963   O1103   0.967   .     S
H964   O1090   0.967   .     S
H965   O1107   0.963   .     S
H966   O1090   1.014   .     S
Zr1003 O1036   2.361   .     S
Zr1003 O1032   2.243   .     S
Zr1003 O1031   2.231   .     S
Zr1003 O1035   2.069   .     S
Zr1004 O1025   2.287   .     S
Zr1004 O1041   2.308   .     S
Zr1004 O463    2.081   1_556 S
Zr1004 O478    2.273   1_566 S
Zr1004 O1026   2.326   1_565 S
Zr1004 O1027   2.331   1_565 S
Zr1004 O1040   2.144   1_565 S
Zr1004 O1037   2.107   1_565 S
Zr1005 O1036   2.307   .     S
Zr1005 O1035   2.079   .     S
Zr1005 O1034   2.292   .     S
Zr1005 O1021   2.140   1_545 S
Zr1005 O1038   2.318   1_545 S
Zr1005 O1047   2.279   1_545 S
Zr1005 O1048   2.341   1_545 S
Zr1005 O1045   2.110   1_545 S
Zr1006 O1047   2.307   .     S
Zr1006 O1049   2.292   .     S
Zr1006 O1050   2.107   1_565 S
Zr1006 O1035   2.146   1_565 S
Zr1006 O1033   2.329   1_565 S
Zr1006 O1046   2.324   1_565 S
Zr1006 O493    2.275   1_565 S
Zr1007 O1021   2.070   .     S
Zr1007 O1023   2.240   .     S
Zr1007 O1022   2.245   .     S
Zr1007 O1047   2.361   .     S
Zr1008 O1028   2.294   .     S
Zr1008 O1040   2.080   .     S
Zr1008 O1051   2.305   .     S
Zr1008 O1043   2.108   1_545 S
Zr1008 O1042   2.336   1_545 S
Zr1008 O1041   2.278   1_545 S
Zr1008 O1039   2.320   1_545 S
Zr1008 O1052   2.143   1_545 S
Zr1009 O1068   2.361   .     S
Zr1009 O1064   2.244   .     S
Zr1009 O1063   2.230   .     S
Zr1009 O1067   2.068   .     S
Zr1010 O1057   2.288   .     S
Zr1010 O1073   2.308   .     S
Zr1010 O495    2.081   1_556 S
Zr1010 O510    2.273   1_656 S
Zr1010 O1058   2.326   1_655 S
Zr1010 O1059   2.332   1_655 S
Zr1010 O1072   2.144   1_655 S
Zr1010 O1069   2.108   1_655 S
Zr1011 O1068   2.306   .     S
Zr1011 O1067   2.079   .     S
Zr1011 O1066   2.292   .     S
Zr1011 O1053   2.140   1_455 S
Zr1011 O1070   2.318   1_455 D
Zr1011 O1079   2.278   1_455 S
Zr1011 O1080   2.342   1_455 S
Zr1011 O1077   2.109   1_455 S
Zr1012 O1079   2.307   .     S
Zr1012 O1081   2.292   .     S
Zr1012 O1082   2.108   1_655 S
Zr1012 O1067   2.146   1_655 S
Zr1012 O1065   2.330   1_655 S
Zr1012 O1078   2.323   1_655 D
Zr1012 O525    2.275   1_655 D
Zr1013 O1053   2.071   .     S
Zr1013 O1055   2.239   .     S
Zr1013 O1054   2.245   .     S
Zr1013 O1079   2.361   .     S
Zr1014 O1060   2.293   .     S
Zr1014 O1072   2.081   .     S
Zr1014 O1083   2.304   .     S
Zr1014 O1075   2.108   1_455 S
Zr1014 O1074   2.335   1_455 S
Zr1014 O1073   2.278   1_455 S
Zr1014 O1071   2.319   1_455 S
Zr1014 O1084   2.143   1_455 S
Zr1015 O1115   2.361   .     S
Zr1015 O1093   2.247   .     S
Zr1015 O1094   2.230   .     S
Zr1015 O1104   2.068   .     S
Zr1016 O1101   2.108   .     S
Zr1016 O1104   2.145   .     S
Zr1016 O1105   2.307   .     S
Zr1016 O1089   2.287   .     S
Zr1016 O1091   2.331   .     S
Zr1016 O1090   2.326   .     S
Zr1017 O1109   2.109   .     S
Zr1017 O1098   2.293   .     S
Zr1017 O1112   2.341   .     S
Zr1017 O1111   2.278   .     S
Zr1017 O1099   2.080   .     S
Zr1017 O1102   2.317   .     S
Zr1017 O1100   2.307   .     S
Zr1017 O1085   2.139   .     S
Zr1018 O1110   2.324   .     S
Zr1018 O1097   2.329   .     S
Zr1018 O1113   2.292   .     S
Zr1018 O1111   2.307   .     S
Zr1018 O1099   2.146   .     S
Zr1018 O1114   2.107   .     S
Zr1018 O558    2.079   1_556 S
Zr1018 O557    2.275   1_556 S
Zr1019 O1111   2.361   .     S
Zr1019 O1086   2.245   .     S
Zr1019 O1087   2.240   .     S
Zr1019 O1085   2.071   .     S
Zr1019 O558    2.069   1_556 S
Zr1019 O530    2.241   1_556 S
Zr1019 O550    2.243   1_556 D
Zr1019 O547    2.366   1_556 S
Zr1020 O1116   2.143   .     S
Zr1020 O1115   2.304   .     S
Zr1020 O1103   2.319   .     S
Zr1020 O1104   2.080   .     S
Zr1020 O1105   2.278   .     S
Zr1020 O1106   2.336   .     S
Zr1020 O1092   2.293   .     S
Zr1020 O1107   2.108   .     S
O1021  Zr1005  2.140   1_565 S
O1024  Zr449   2.241   1_556 S
O1026  Zr1004  2.326   1_545 S
O1027  Zr1004  2.331   1_545 S
O1029  Zr445   2.247   1_556 S
O1030  Zr445   2.231   1_556 S
O1033  Zr1006  2.329   1_545 S
O1035  Zr1006  2.146   1_545 S
O1036  Zr446   2.273   1_545 S
O1037  Zr1004  2.107   1_545 S
O1037  H865    0.963   1_545 S
O1038  Zr1005  2.318   1_565 S
O1039  Zr1008  2.320   1_565 S
O1040  Zr445   2.068   1_556 S
O1040  Zr1004  2.144   1_545 S
O1041  Zr449   2.366   1_556 S
O1041  Zr1008  2.278   1_565 S
O1042  Zr1008  2.336   1_565 S
O1043  H869    0.963   1_565 S
O1043  Zr1008  2.108   1_565 S
O1044  Zr449   2.244   1_556 S
O1045  Zr1005  2.110   1_565 S
O1045  H861    0.963   1_565 S
O1046  Zr1006  2.324   1_545 S
O1047  Zr1005  2.279   1_565 S
O1048  Zr1005  2.341   1_565 S
O1050  H859    0.962   1_545 S
O1050  Zr1006  2.107   1_545 S
O1051  Zr445   2.362   1_556 S
O1051  Zr448   2.275   1_546 S
O1052  Zr449   2.069   1_556 S
O1052  Zr448   2.080   1_556 S
O1052  Zr1008  2.143   1_565 S
O1053  Zr1011  2.140   1_655 S
O1056  Zr455   2.240   1_556 S
O1058  Zr1010  2.326   1_455 S
O1059  Zr1010  2.332   1_455 S
O1061  Zr451   2.246   1_556 S
O1062  Zr451   2.231   1_556 S
O1065  Zr1012  2.330   1_455 S
O1067  Zr1012  2.146   1_455 S
O1068  Zr452   2.273   1_455 S
O1069  Zr1010  2.108   1_455 S
O1069  H913    0.963   1_455 S
O1070  Zr1011  2.318   1_655 D
O1071  Zr1014  2.319   1_655 S
O1072  Zr451   2.068   1_556 S
O1072  Zr1010  2.144   1_455 S
O1073  Zr455   2.366   1_556 S
O1073  Zr1014  2.278   1_655 S
O1074  Zr1014  2.335   1_655 S
O1075  H917    0.963   1_655 S
O1075  Zr1014  2.108   1_655 S
O1076  Zr455   2.243   1_556 S
O1077  Zr1011  2.109   1_655 S
O1077  H909    0.963   1_655 S
O1078  Zr1012  2.323   1_455 D
O1079  Zr1011  2.278   1_655 S
O1080  Zr1011  2.342   1_655 S
O1082  H907    0.962   1_455 S
O1082  Zr1012  2.108   1_455 S
O1083  Zr451   2.361   1_556 S
O1083  Zr454   2.275   1_456 D
O1084  Zr455   2.069   1_556 S
O1084  Zr454   2.079   1_556 S
O1084  Zr1014  2.143   1_655 S
O1085  Zr458   2.081   1_556 S
O1095  Zr457   2.231   1_556 S
O1096  Zr457   2.243   1_556 S
O1099  Zr457   2.069   1_556 S
O1100  Zr457   2.362   1_556 S
O1100  Zr458   2.273   1_556 S
