# CIF file generated by openbabel 2.4.90, see http://openbabel.sf.net
data_I
_chemical_name_common ''
_cell_length_a 11.184
_cell_length_b 11.184
_cell_length_c 14.591
_cell_angle_alpha 90
_cell_angle_beta 90
_cell_angle_gamma 120
_space_group_name_H-M_alt 'P 1'
_space_group_name_Hall 'P 1'
loop_
    _symmetry_equiv_pos_as_xyz
    x,y,z
loop_
    _atom_site_label
    _atom_site_type_symbol
    _atom_site_fract_x
    _atom_site_fract_y
    _atom_site_fract_z
    _atom_site_occupancy
    O0      O    0.89300   0.37000   0.15100   1.000
    O1      O    0.88100   0.55900   0.15400   1.000
    C2      C    0.91900   0.48200   0.11400   1.000
    C3      C    0.93500   0.48200   0.01900   1.000
    O4      O    0.10700   0.47700   0.84900   1.000
    O5      O    0.89300   0.37000   0.34900   1.000
    O6      O    0.10700   0.47700   0.65100   1.000
    O7      O    0.47700   0.10700   0.15100   1.000
    O8      O    0.37000   0.89300   0.84900   1.000
    O9      O    0.63000   0.52300   0.15100   1.000
    O10     O    0.63000   0.52300   0.34900   1.000
    O11     O    0.47700   0.10700   0.34900   1.000
    O12     O    0.11900   0.67800   0.84600   1.000
    O13     O    0.88100   0.55900   0.34600   1.000
    O14     O    0.11900   0.67800   0.65400   1.000
    O15     O    0.67800   0.11900   0.15400   1.000
    O16     O    0.55900   0.88100   0.84600   1.000
    O17     O    0.67800   0.11900   0.34600   1.000
    O18     O    0.44100   0.32200   0.15400   1.000
    O19     O    0.44100   0.32200   0.34600   1.000
    C20     C    0.08100   0.56300   0.88600   1.000
    C21     C    0.91900   0.48200   0.38600   1.000
    C22     C    0.08100   0.56300   0.61400   1.000
    C23     C    0.56300   0.08100   0.11400   1.000
    C24     C    0.48200   0.91900   0.88600   1.000
    C25     C    0.06500   0.54700   0.98100   1.000
    C26     C    0.93500   0.48200   0.48100   1.000
    C27     C    0.06500   0.54700   0.51900   1.000
    C28     C    0.54700   0.06500   0.01900   1.000
    C29     C    0.48200   0.93500   0.98100   1.000
    O30     O    0.52300   0.63000   0.84900   1.000
    O31     O    0.37000   0.89300   0.65100   1.000
    O32     O    0.52300   0.63000   0.65100   1.000
    O33     O    0.32200   0.44100   0.84600   1.000
    O34     O    0.55900   0.88100   0.65400   1.000
    O35     O    0.32200   0.44100   0.65400   1.000
    C36     C    0.51800   0.43700   0.11400   1.000
    C37     C    0.51800   0.43700   0.38600   1.000
    C38     C    0.56300   0.08100   0.38600   1.000
    C39     C    0.43700   0.51800   0.88600   1.000
    C40     C    0.48200   0.91900   0.61400   1.000
    C41     C    0.43700   0.51800   0.61400   1.000
    C42     C    0.51800   0.45300   0.01900   1.000
    C43     C    0.51800   0.45300   0.48100   1.000
    C44     C    0.54700   0.06500   0.48100   1.000
    C45     C    0.45300   0.51800   0.98100   1.000
    C46     C    0.48200   0.93500   0.51900   1.000
    C47     C    0.45300   0.51800   0.51900   1.000
loop_
    _geom_bond_atom_site_label_1
    _geom_bond_atom_site_label_2
    _geom_bond_distance
    _geom_bond_site_symmetry_2
    _ccdc_geom_bond_type
    O16    C24       1.27627      .   S
    O12    C20       1.27627      .   S
    O8     C24       1.25730      .   S
    O4     C20       1.25730      .   S
    C24    C29       1.39765      .   S
    C20    C25       1.39765      .   S
    C25    C3        1.37580  1_456   S
    C29    C28       1.37580  1_566   S
    C28    C23       1.39765      .   S
    C3     C2        1.39765      .   S
    C42    C36       1.39765      .   S
    C42    C45       1.37580  1_554   S
    C2     O0        1.25730      .   S
    C2     O1        1.27627      .   S
    C36    O9        1.25730      .   S
    C36    O18       1.27627      .   S
    C23    O7        1.25730      .   S
    C23    O15       1.27627      .   S
    O13    C21       1.27627      .   S
    O17    C38       1.27627      .   S
    O19    C37       1.27627      .   S
    O10    C37       1.25730      .   S
    O5     C21       1.25730      .   S
    O11    C38       1.25730      .   S
    C37    C43       1.39765      .   S
    C21    C26       1.39765      .   S
    C38    C44       1.39765      .   S
    C44    C46       1.37580  1_545   S
    C43    C47       1.37580      .   S
    C26    C27       1.37580  1_655   S
    C27    C22       1.39765      .   S
    C46    C40       1.39765      .   S
    C47    C41       1.39765      .   S
    C41    O32       1.25730      .   S
    C41    O35       1.27627      .   S
    C22    O6        1.25730      .   S
    C22    O14       1.27627      .   S
    C40    O31       1.25730      .   S
    C40    O34       1.27627      .   S
    O33    C39       1.27627      .   S
    O30    C39       1.25730      .   S
    C39    C45       1.39765      .   S
