# CIF file generated by openbabel 2.4.90, see http://openbabel.sf.net
data_I
_chemical_name_common ''
_cell_length_a 11.184
_cell_length_b 11.184
_cell_length_c 14.591
_cell_angle_alpha 90
_cell_angle_beta 90
_cell_angle_gamma 120
_space_group_name_H-M_alt 'P 1'
_space_group_name_Hall 'P 1'
loop_
    _symmetry_equiv_pos_as_xyz
    x,y,z
loop_
    _atom_site_label
    _atom_site_type_symbol
    _atom_site_fract_x
    _atom_site_fract_y
    _atom_site_fract_z
    _atom_site_occupancy
    Fe0     Fe   0.76900   0.23700   0.25000   1.000
    O1      O    0.66600   0.33300   0.25000   1.000
    Fe2     Fe   0.76300   0.53200   0.25000   1.000
    Fe3     Fe   0.46800   0.23100   0.25000   1.000
    Fe4     Fe   0.23100   0.46800   0.75000   1.000
    Fe5     Fe   0.23700   0.76900   0.75000   1.000
    Fe6     Fe   0.53200   0.76300   0.75000   1.000
    O7      O    0.66700   0.33300   0.25000   1.000
    O8      O    0.66700   0.33400   0.25000   1.000
    O9      O    0.33300   0.66600   0.75000   1.000
    O10     O    0.33300   0.66700   0.75000   1.000
    O11     O    0.33400   0.66700   0.75000   1.000
loop_
    _geom_bond_atom_site_label_1
    _geom_bond_atom_site_label_2
    _geom_bond_distance
    _geom_bond_site_symmetry_2
    _ccdc_geom_bond_type
    Fe4    O9        1.91805      .   S
    Fe5    O10       1.91805      .   S
    Fe6    O11       1.91805      .   S
    O7     Fe0       1.91805      .   S
    O8     Fe2       1.91805      .   S
    Fe3    O1        1.91805      .   S
    O1     Fe0       1.92784      .   S
    O1     Fe2       1.92764      .   S
    O7     Fe2       1.92784      .   S
    O7     Fe3       1.92764      .   S
    O8     Fe0       1.92764      .   S
    O8     Fe3       1.92784      .   S
    O9     Fe5       1.92784      .   S
    O9     Fe6       1.92764      .   S
    O10    Fe4       1.92764      .   S
    O10    Fe6       1.92784      .   S
    O11    Fe4       1.92784      .   S
    O11    Fe5       1.92764      .   S
