# CIF file generated by openbabel 2.4.90, see http://openbabel.sf.net
data_I
_chemical_name_common ''
_cell_length_a 11.184
_cell_length_b 11.184
_cell_length_c 14.591
_cell_angle_alpha 90
_cell_angle_beta 90
_cell_angle_gamma 120
_space_group_name_H-M_alt 'P 1'
_space_group_name_Hall 'P 1'
loop_
    _symmetry_equiv_pos_as_xyz
    x,y,z
loop_
    _atom_site_label
    _atom_site_type_symbol
    _atom_site_fract_x
    _atom_site_fract_y
    _atom_site_fract_z
    _atom_site_occupancy
    N0      N    0.48025   0.48025   0.00000   1.000
    N1      N    0.51975   0.00000   0.50000   1.000
    N2      N    0.48025   0.48025   0.50000   1.000
    N3      N    0.00000   0.51975   0.00000   1.000
    N4      N    0.00000   0.51975   0.50000   1.000
    N5      N    0.51975   0.00000   0.00000   1.000
    Zr6     Zr   0.66667   0.33333   0.25000   1.000
    Zr7     Zr   0.33333   0.66667   0.75000   1.000
    O8      O    0.61277   0.21004   0.32469   1.000
    O9      O    0.59727   0.38723   0.32469   1.000
    O10     O    0.78996   0.40273   0.17531   1.000
    O11     O    0.78996   0.40273   0.32469   1.000
    O12     O    0.61277   0.21004   0.17531   1.000
    O13     O    0.59727   0.38723   0.17531   1.000
    O14     O    0.40273   0.78996   0.67531   1.000
    O15     O    0.38723   0.59727   0.67531   1.000
    O16     O    0.21004   0.61277   0.82469   1.000
    O17     O    0.21004   0.61277   0.67531   1.000
    O18     O    0.40273   0.78996   0.82469   1.000
    O19     O    0.38723   0.59727   0.82469   1.000
loop_
    _geom_bond_atom_site_label_1
    _geom_bond_atom_site_label_2
    _geom_bond_distance
    _geom_bond_site_symmetry_2
    _ccdc_geom_bond_type
    Zr6    O8        1.61899      .   S
    N1     O8        3.27109      .   S
    Zr6    O9        1.61899      .   S
    N2     O9        3.27109      .   S
    Zr6    O10       1.61899      .   S
    N3     O10       3.27109  1_455   S
    Zr6    O11       1.61899      .   S
    N4     O11       3.27109  1_455   S
    Zr6    O12       1.61899      .   S
    N5     O12       3.27109      .   S
    Zr6    O13       1.61899      .   S
    N0     O13       3.27109      .   S
    Zr7    O14       1.61899      .   S
    N1     O14       3.27109  1_545   S
    Zr7    O15       1.61899      .   S
    N2     O15       3.27109      .   S
    Zr7    O16       1.61899      .   S
    N3     O16       3.27109  1_554   S
    Zr7    O17       1.61899      .   S
    N4     O17       3.27109      .   S
    Zr7    O18       1.61899      .   S
    N5     O18       3.27109  1_544   S
    Zr7    O19       1.61899      .   S
    N0     O19       3.27109  1_554   S
