# CIF file generated by openbabel 2.4.90, see http://openbabel.sf.net
data_I
_chemical_name_common ''
_cell_length_a 11.184
_cell_length_b 11.184
_cell_length_c 14.591
_cell_angle_alpha 90
_cell_angle_beta 90
_cell_angle_gamma 120
_space_group_name_H-M_alt 'P 1'
_space_group_name_Hall 'P 1'
loop_
    _symmetry_equiv_pos_as_xyz
    x,y,z
loop_
    _atom_site_label
    _atom_site_type_symbol
    _atom_site_fract_x
    _atom_site_fract_y
    _atom_site_fract_z
    _atom_site_occupancy
    N0      N    0.66667   0.33333   0.83150   1.000
    N1      N    0.66667   0.33333   0.66850   1.000
    N2      N    0.48025   0.48025   0.00000   1.000
    N3      N    0.51975   0.00000   0.50000   1.000
    N4      N    0.48025   0.48025   0.50000   1.000
    N5      N    0.84020   0.00000   0.00000   1.000
    N6      N    0.15980   0.15980   0.00000   1.000
    N7      N    0.23650   0.01450   0.25000   1.000
    N8      N    0.00000   0.51975   0.00000   1.000
    N9      N    0.00000   0.84020   0.00000   1.000
    N10     N    0.33333   0.66667   0.16850   1.000
    N11     N    0.00000   0.51975   0.50000   1.000
    N12     N    0.77800   0.76350   0.25000   1.000
    N13     N    0.33333   0.66667   0.33150   1.000
    N14     N    0.51975   0.00000   0.00000   1.000
    N15     N    0.15980   0.15980   0.50000   1.000
    N16     N    0.84020   0.00000   0.50000   1.000
    N17     N    0.00000   0.84020   0.50000   1.000
    N18     N    0.98550   0.22200   0.25000   1.000
    N19     N    0.22200   0.98550   0.75000   1.000
    N20     N    0.76350   0.77800   0.75000   1.000
    N21     N    0.01450   0.23650   0.75000   1.000
    Zr22    Zr   0.00000   0.00000   0.00000   1.000
    Zr23    Zr   0.55900   0.43600   0.75000   1.000
    Zr24    Zr   0.87700   0.44100   0.75000   1.000
    Zr25    Zr   0.66667   0.33333   0.25000   1.000
    O26     O    0.78946   0.27342   0.25000   1.000
    O27     O    0.64415   0.21117   0.32450   1.000
    O28     O    0.79108   0.37248   0.17513   1.000
    O29     O    0.79108   0.37248   0.32487   1.000
    O30     O    0.64415   0.21117   0.17550   1.000
    O31     O    0.72658   0.51604   0.25000   1.000
    O32     O    0.62752   0.41860   0.32487   1.000
    O33     O    0.78883   0.43298   0.17550   1.000
    O34     O    0.78883   0.43298   0.32450   1.000
    O35     O    0.62752   0.41860   0.17513   1.000
    O36     O    0.48396   0.21054   0.25000   1.000
    O37     O    0.56702   0.35585   0.32450   1.000
    O38     O    0.58140   0.20892   0.32487   1.000
    O39     O    0.56702   0.35585   0.17550   1.000
    O40     O    0.58140   0.20892   0.17513   1.000
    Zr41    Zr   0.33333   0.66667   0.75000   1.000
    O42     O    0.21054   0.48396   0.75000   1.000
    O43     O    0.35585   0.56702   0.67550   1.000
    O44     O    0.35585   0.56702   0.82450   1.000
    O45     O    0.20892   0.58140   0.82488   1.000
    O46     O    0.20892   0.58140   0.67512   1.000
    O47     O    0.27342   0.78946   0.75000   1.000
    O48     O    0.37248   0.79108   0.67512   1.000
    O49     O    0.21117   0.64415   0.82450   1.000
    O50     O    0.21117   0.64415   0.67550   1.000
    O51     O    0.37248   0.79108   0.82488   1.000
    O52     O    0.51604   0.72658   0.75000   1.000
    O53     O    0.41860   0.62752   0.67512   1.000
    O54     O    0.43298   0.78883   0.67550   1.000
    O55     O    0.41860   0.62752   0.82488   1.000
    O56     O    0.43298   0.78883   0.82450   1.000
    Zr57    Zr   0.44100   0.87700   0.25000   1.000
    Zr58    Zr   0.56400   0.12300   0.75000   1.000
    Zr59    Zr   0.00000   0.00000   0.50000   1.000
    Zr60    Zr   0.12300   0.56400   0.25000   1.000
    Zr61    Zr   0.43600   0.55900   0.25000   1.000
loop_
    _geom_bond_atom_site_label_1
    _geom_bond_atom_site_label_2
    _geom_bond_distance
    _geom_bond_site_symmetry_2
    _ccdc_geom_bond_type
    Zr25   O26       1.80423      .   S
    N18    O26       2.52956      .   S
    Zr25   O27       1.66365      .   S
    N3     O27       3.28401      .   S
    Zr25   O28       1.64689      .   S
    N8     O28       3.29440  1_455   S
    Zr25   O29       1.64689      .   S
    N11    O29       3.29440  1_455   S
    Zr25   O30       1.66365      .   S
    N14    O30       3.28401      .   S
    Zr25   O31       1.80423      .   S
    N12    O31       2.52956      .   S
    Zr25   O32       1.64689      .   S
    N4     O32       3.29440      .   S
    Zr25   O33       1.66365      .   S
    N8     O33       3.28401  1_455   S
    Zr25   O34       1.66365      .   S
    N11    O34       3.28401  1_455   S
    Zr25   O35       1.64689      .   S
    N2     O35       3.29440      .   S
    Zr25   O36       1.80423      .   S
    N7     O36       2.52956      .   S
    Zr25   O37       1.66365      .   S
    N4     O37       3.28401      .   S
    Zr25   O38       1.64689      .   S
    N3     O38       3.29440      .   S
    Zr25   O39       1.66365      .   S
    N2     O39       3.28401      .   S
    Zr25   O40       1.64689      .   S
    N14    O40       3.29440      .   S
    Zr41   O42       1.80423      .   S
    N21    O42       2.52956      .   S
    Zr41   O43       1.66365      .   S
    N4     O43       3.28401      .   S
    Zr41   O44       1.66365      .   S
    N2     O44       3.28401  1_554   S
    Zr41   O45       1.64689      .   S
    N8     O45       3.29440  1_554   S
    Zr41   O46       1.64689      .   S
    N11    O46       3.29440      .   S
    Zr41   O47       1.80423      .   S
    N19    O47       2.52956      .   S
    Zr41   O48       1.64689      .   S
    N3     O48       3.29440  1_545   S
    Zr41   O49       1.66365      .   S
    N8     O49       3.28401  1_554   S
    Zr41   O50       1.66365      .   S
    N11    O50       3.28401      .   S
    Zr41   O51       1.64689      .   S
    N14    O51       3.29440  1_544   S
    Zr41   O52       1.80423      .   S
    N20    O52       2.52956      .   S
    Zr41   O53       1.64689      .   S
    N4     O53       3.29440      .   S
    Zr41   O54       1.66365      .   S
    N3     O54       3.28401  1_545   S
    Zr41   O55       1.64689      .   S
    N2     O55       3.29440  1_554   S
    Zr41   O56       1.66365      .   S
    N14    O56       3.28401  1_544   S
