# CIF file generated by openbabel 2.4.90, see http://openbabel.sf.net
data_I
_chemical_name_common ''
_cell_length_a 11.184
_cell_length_b 11.184
_cell_length_c 14.591
_cell_angle_alpha 90
_cell_angle_beta 90
_cell_angle_gamma 120
_space_group_name_H-M_alt 'P 1'
_space_group_name_Hall 'P 1'
loop_
    _symmetry_equiv_pos_as_xyz
    x,y,z
loop_
    _atom_site_label
    _atom_site_type_symbol
    _atom_site_fract_x
    _atom_site_fract_y
    _atom_site_fract_z
    _atom_site_occupancy
    Zr0     Zr   0.05900   0.05900   0.00000   1.000
    Zr1     Zr   0.94100   0.00000   0.00000   1.000
    Zr2     Zr   0.00000   0.94100   0.00000   1.000
    Zr3     Zr   0.12300   0.56400   0.25000   1.000
    Zr4     Zr   0.43600   0.55900   0.25000   1.000
    Zr5     Zr   0.44100   0.87700   0.25000   1.000
    Zr6     Zr   0.76900   0.23700   0.25000   1.000
    Zr7     Zr   0.66600   0.33300   0.25000   1.000
    Zr8     Zr   0.76300   0.53200   0.25000   1.000
    Zr9     Zr   0.46800   0.23100   0.25000   1.000
    Zr10    Zr   0.23100   0.46800   0.75000   1.000
    Zr11    Zr   0.23700   0.76900   0.75000   1.000
    Zr12    Zr   0.53200   0.76300   0.75000   1.000
    Zr13    Zr   0.05900   0.05900   0.50000   1.000
    Zr14    Zr   0.94100   0.00000   0.50000   1.000
    Zr15    Zr   0.00000   0.94100   0.50000   1.000
    Zr16    Zr   0.56400   0.12300   0.75000   1.000
    Zr17    Zr   0.55900   0.43600   0.75000   1.000
    Zr18    Zr   0.87700   0.44100   0.75000   1.000
    Zr19    Zr   0.66700   0.33300   0.25000   1.000
    Zr20    Zr   0.66700   0.33400   0.25000   1.000
    Zr21    Zr   0.33300   0.66600   0.75000   1.000
    Zr22    Zr   0.33300   0.66700   0.75000   1.000
    Zr23    Zr   0.33400   0.66700   0.75000   1.000
    O24     O    0.28200   0.56700   0.75000   1.000
    O25     O    0.28500   0.71800   0.75000   1.000
    O26     O    0.43300   0.71500   0.75000   1.000
    O27     O    0.02950   0.00000   0.00000   1.000
    O28     O    0.00000   0.02950   0.00000   1.000
    O29     O    0.97050   0.97050   0.00000   1.000
    O30     O    0.71800   0.28500   0.25000   1.000
    O31     O    0.71500   0.43300   0.25000   1.000
    O32     O    0.56700   0.28200   0.25000   1.000
    O33     O    0.02950   0.00000   0.50000   1.000
    O34     O    0.00000   0.02950   0.50000   1.000
    O35     O    0.97050   0.97050   0.50000   1.000
    O36     O    0.71750   0.28500   0.25000   1.000
    O37     O    0.71450   0.43250   0.25000   1.000
    O38     O    0.71500   0.43250   0.25000   1.000
    O39     O    0.56750   0.28200   0.25000   1.000
    O40     O    0.71800   0.28550   0.25000   1.000
    O41     O    0.56750   0.28250   0.25000   1.000
    O42     O    0.28500   0.71750   0.75000   1.000
    O43     O    0.43250   0.71450   0.75000   1.000
    O44     O    0.28200   0.56750   0.75000   1.000
    O45     O    0.43250   0.71500   0.75000   1.000
    O46     O    0.28250   0.56750   0.75000   1.000
    O47     O    0.28550   0.71800   0.75000   1.000
    N48     N    0.66667   0.33333   0.83150   1.000
    N49     N    0.66667   0.33333   0.66850   1.000
    N50     N    0.48025   0.48025   0.00000   1.000
    O51     O    0.50388   0.58838   0.89975   1.000
    O52     O    0.46738   0.37838   0.10100   1.000
    O53     O    0.58838   0.50388   0.10025   1.000
    O54     O    0.37838   0.46737   0.89900   1.000
    N55     N    0.51975   0.00000   0.50000   1.000
    O56     O    0.41163   0.91550   0.60025   1.000
    O57     O    0.49612   0.08450   0.39975   1.000
    O58     O    0.62162   0.08900   0.39900   1.000
    O59     O    0.53263   0.91100   0.60100   1.000
    N60     N    0.48025   0.48025   0.50000   1.000
    O61     O    0.50387   0.58837   0.60025   1.000
    O62     O    0.58837   0.50387   0.39975   1.000
    O63     O    0.46738   0.37838   0.39900   1.000
    O64     O    0.37838   0.46738   0.60100   1.000
    N65     N    0.84020   0.00000   0.00000   1.000
    N66     N    0.15980   0.15980   0.00000   1.000
    N67     N    0.23650   0.01450   0.25000   1.000
    O68     O    0.30125   0.08775   0.25000   1.000
    N69     N    0.00000   0.51975   0.00000   1.000
    O70     O    0.08900   0.62162   0.89900   1.000
    O71     O    0.91550   0.41163   0.10025   1.000
    O72     O    0.08450   0.49613   0.89975   1.000
    O73     O    0.91100   0.53263   0.10100   1.000
    N74     N    0.00000   0.84020   0.00000   1.000
    N75     N    0.33333   0.66667   0.16850   1.000
    N76     N    0.00000   0.51975   0.50000   1.000
    O77     O    0.91550   0.41162   0.39975   1.000
    O78     O    0.08450   0.49612   0.60025   1.000
    O79     O    0.91100   0.53262   0.39900   1.000
    O80     O    0.08900   0.62162   0.60100   1.000
    N81     N    0.77800   0.76350   0.25000   1.000
    O82     O    0.78650   0.69875   0.25000   1.000
    N83     N    0.33333   0.66667   0.33150   1.000
    N84     N    0.51975   0.00000   0.00000   1.000
    O85     O    0.53263   0.91100   0.89900   1.000
    O86     O    0.62163   0.08900   0.10100   1.000
    O87     O    0.49613   0.08450   0.10025   1.000
    O88     O    0.41163   0.91550   0.89975   1.000
    N89     N    0.15980   0.15980   0.50000   1.000
    N90     N    0.84020   0.00000   0.50000   1.000
    N91     N    0.00000   0.84020   0.50000   1.000
    N92     N    0.98550   0.22200   0.25000   1.000
    O93     O    0.91225   0.21350   0.25000   1.000
    N94     N    0.22200   0.98550   0.75000   1.000
    O95     O    0.21350   0.91225   0.75000   1.000
    N96     N    0.76350   0.77800   0.75000   1.000
    O97     O    0.69875   0.78650   0.75000   1.000
    N98     N    0.01450   0.23650   0.75000   1.000
    O99     O    0.08775   0.30125   0.75000   1.000
loop_
    _geom_bond_atom_site_label_1
    _geom_bond_atom_site_label_2
    _geom_bond_distance
    _geom_bond_site_symmetry_2
    _ccdc_geom_bond_type
    Zr10   O24       0.95902      .   S
    Zr21   O24       0.95902      .   S
    Zr11   O25       0.95902      .   S
    Zr22   O25       0.95902      .   S
    Zr12   O26       0.95902      .   S
    Zr23   O26       0.95902      .   S
    Zr0    O27       0.57145      .   S
    Zr2    O27       0.57145  1_565   S
    Zr0    O28       0.57145      .   S
    Zr1    O28       0.57145  1_655   S
    Zr2    O29       0.57145  1_455   S
    Zr1    O29       0.57145  1_545   S
    Zr19   O30       0.95902      .   S
    Zr6    O30       0.95902      .   S
    Zr20   O31       0.95902      .   S
    Zr8    O31       0.95902      .   S
    Zr9    O32       0.95902      .   S
    Zr7    O32       0.95902      .   S
    Zr13   O33       0.57145      .   S
    Zr15   O33       0.57145  1_565   S
    Zr13   O34       0.57145      .   S
    Zr14   O34       0.57145  1_655   S
    Zr15   O35       0.57145  1_455   S
    Zr14   O35       0.57145  1_545   S
    Zr7    O36       0.96392      .   S
    Zr6    O36       0.96392      .   S
    Zr7    O37       0.96382      .   S
    Zr8    O37       0.96382      .   S
    Zr19   O38       0.96392      .   S
    Zr8    O38       0.96392      .   S
    Zr19   O39       0.96382      .   S
    Zr9    O39       0.96382      .   S
    Zr20   O40       0.96382      .   S
    Zr6    O40       0.96382      .   S
    Zr20   O41       0.96392      .   S
    Zr9    O41       0.96392      .   S
    Zr21   O42       0.96392      .   S
    Zr11   O42       0.96392      .   S
    Zr21   O43       0.96382      .   S
    Zr12   O43       0.96382      .   S
    Zr22   O44       0.96382      .   S
    Zr10   O44       0.96382      .   S
    Zr22   O45       0.96392      .   S
    Zr12   O45       0.96392      .   S
    Zr23   O46       0.96392      .   S
    Zr10   O46       0.96392      .   S
    Zr23   O47       0.96382      .   S
    Zr11   O47       0.96382      .   S
    N50    O51       1.83092  1_554   S
    Zr12   O51       2.84132      .   S
    N50    O52       1.82390      .   S
    Zr9    O52       2.73035      .   S
    N50    O53       1.83092      .   S
    Zr8    O53       2.84132      .   S
    N50    O54       1.82390  1_554   S
    Zr10   O54       2.73035      .   S
    N55    O56       1.83092  1_545   S
    Zr11   O56       2.84132      .   S
    N55    O57       1.83092      .   S
    Zr9    O57       2.84132      .   S
    N55    O58       1.82390      .   S
    Zr6    O58       2.73035      .   S
    N55    O59       1.82390  1_545   S
    Zr12   O59       2.73035      .   S
    N60    O61       1.83092      .   S
    Zr12   O61       2.84132      .   S
    N60    O62       1.83092      .   S
    Zr8    O62       2.84132      .   S
    N60    O63       1.82390      .   S
    Zr9    O63       2.73035      .   S
    N60    O64       1.82390      .   S
    Zr10   O64       2.73035      .   S
    N67    O68       0.77608      .   S
    Zr9    O68       1.74840      .   S
    N69    O70       1.82390  1_554   S
    Zr11   O70       2.73035      .   S
    N69    O71       1.83092  1_455   S
    Zr6    O71       2.84132      .   S
    N69    O72       1.83092  1_554   S
    Zr10   O72       2.84132      .   S
    N69    O73       1.82390  1_455   S
    Zr8    O73       2.73035      .   S
    N76    O77       1.83092  1_455   S
    Zr6    O77       2.84132      .   S
    N76    O78       1.83092      .   S
    Zr10   O78       2.84132      .   S
    N76    O79       1.82390  1_455   S
    Zr8    O79       2.73035      .   S
    N76    O80       1.82390      .   S
    Zr11   O80       2.73035      .   S
    N81    O82       0.77608      .   S
    Zr8    O82       1.74840      .   S
    N84    O85       1.82390  1_544   S
    Zr12   O85       2.73035      .   S
    N84    O86       1.82390      .   S
    Zr6    O86       2.73035      .   S
    N84    O87       1.83092      .   S
    Zr9    O87       2.84132      .   S
    N84    O88       1.83092  1_544   S
    Zr11   O88       2.84132      .   S
    N92    O93       0.77608      .   S
    Zr6    O93       1.74840      .   S
    N94    O95       0.77608      .   S
    Zr11   O95       1.74840      .   S
    N96    O97       0.77608      .   S
    Zr12   O97       1.74840      .   S
    N98    O99       0.77608      .   S
    Zr10   O99       1.74840      .   S
