# CIF file generated by openbabel 2.4.90, see http://openbabel.sf.net
data_I
_chemical_name_common ''
_cell_length_a 39.222
_cell_length_b 26.018
_cell_length_c 27.887
_cell_angle_alpha 90
_cell_angle_beta 90
_cell_angle_gamma 90
_space_group_name_H-M_alt 'P 1'
_space_group_name_Hall 'P 1'
loop_
    _symmetry_equiv_pos_as_xyz
    x,y,z
loop_
    _atom_site_label
    _atom_site_type_symbol
    _atom_site_fract_x
    _atom_site_fract_y
    _atom_site_fract_z
    _atom_site_occupancy
    O0      O    0.92910   0.19320   0.48150   1.000
    N1      N    0.91200   0.19790   0.40500   1.000
    C2      C    0.91870   0.21710   0.44850   1.000
    H3      H    0.91480   0.25280   0.45330   1.000
    C4      C    0.91560   0.14600   0.39310   1.000
    H5      H    0.92320   0.12680   0.42140   1.000
    H6      H    0.93240   0.14230   0.36740   1.000
    H7      H    0.89360   0.13240   0.38230   1.000
    C8      C    0.90330   0.23490   0.36330   1.000
    H9      H    0.90270   0.27030   0.37520   1.000
    H10     H    0.88090   0.22580   0.35000   1.000
    H11     H    0.92060   0.23190   0.33810   1.000
    N12     N    0.91630   0.98890   0.37820   1.000
    O13     O    0.92920   0.98990   0.88270   1.000
    O14     O    0.92650   0.23900   0.78340   1.000
    C15     C    0.95270   0.00340   0.38050   1.000
    C16     C    0.91100   0.93210   0.37480   1.000
    N17     N    0.99890   0.06890   0.46400   1.000
    C18     C    0.00000   0.00000   0.49470   1.000
    C19     C    0.04460   0.09440   0.46380   1.000
    N20     N    0.91500   0.23250   0.86340   1.000
    C21     C    0.92970   0.22020   0.82010   1.000
    C22     C    0.91490   0.19710   0.90880   1.000
    C23     C    0.89760   0.28350   0.88700   1.000
    O24     O    0.00060   0.42760   0.79830   1.000
    O25     O    0.00000   0.50000   0.75900   1.000
    O26     O    0.00020   0.38100   0.42900   1.000
    O27     O    0.92600   0.40100   0.38800   1.000
    C28     C    0.99900   0.40400   0.38800   1.000
    C29     C    0.94900   0.39200   0.40100   1.000
    O30     O    0.00270   0.04240   0.78090   1.000
    C31     C    0.00060   0.45600   0.75900   1.000
    C32     C    0.95730   0.40800   0.78800   1.000
    O33     O    0.07090   0.80680   0.48150   1.000
    O34     O    0.17910   0.05680   0.73150   1.000
    O35     O    0.32090   0.44320   0.73150   1.000
    O36     O    0.42910   0.19320   0.98150   1.000
    O37     O    0.57090   0.80680   0.98150   1.000
    O38     O    0.67910   0.05680   0.23150   1.000
    O39     O    0.82090   0.44320   0.23150   1.000
    O40     O    0.92910   0.69320   0.98150   1.000
    O41     O    0.07090   0.30680   0.98150   1.000
    O42     O    0.17910   0.55680   0.23150   1.000
    O43     O    0.32090   0.94320   0.23150   1.000
    O44     O    0.42910   0.69320   0.48150   1.000
    O45     O    0.57090   0.30680   0.48150   1.000
    O46     O    0.67910   0.55680   0.73150   1.000
    O47     O    0.82090   0.94320   0.73150   1.000
    N48     N    0.08800   0.80210   0.40500   1.000
    N49     N    0.16200   0.05210   0.65500   1.000
    N50     N    0.33800   0.44790   0.65500   1.000
    N51     N    0.41200   0.19790   0.90500   1.000
    N52     N    0.58800   0.80210   0.90500   1.000
    N53     N    0.66200   0.05210   0.15500   1.000
    N54     N    0.83800   0.44790   0.15500   1.000
    N55     N    0.91200   0.69790   0.90500   1.000
    N56     N    0.08800   0.30210   0.90500   1.000
    N57     N    0.16200   0.55210   0.15500   1.000
    N58     N    0.33800   0.94790   0.15500   1.000
    N59     N    0.41200   0.69790   0.40500   1.000
    N60     N    0.58800   0.30210   0.40500   1.000
    N61     N    0.66200   0.55210   0.65500   1.000
    N62     N    0.83800   0.94790   0.65500   1.000
    C63     C    0.08130   0.78290   0.44850   1.000
    C64     C    0.16870   0.03290   0.69850   1.000
    C65     C    0.33130   0.46710   0.69850   1.000
    C66     C    0.41870   0.21710   0.94850   1.000
    C67     C    0.58130   0.78290   0.94850   1.000
    C68     C    0.66870   0.03290   0.19850   1.000
    C69     C    0.83130   0.46710   0.19850   1.000
    C70     C    0.91870   0.71710   0.94850   1.000
    C71     C    0.08130   0.28290   0.94850   1.000
    C72     C    0.16870   0.53290   0.19850   1.000
    C73     C    0.33130   0.96710   0.19850   1.000
    C74     C    0.41870   0.71710   0.44850   1.000
    C75     C    0.58130   0.28290   0.44850   1.000
    C76     C    0.66870   0.53290   0.69850   1.000
    C77     C    0.83130   0.96710   0.69850   1.000
    H78     H    0.08520   0.74720   0.45330   1.000
    H79     H    0.16480   0.99720   0.70330   1.000
    H80     H    0.33520   0.50280   0.70330   1.000
    H81     H    0.41480   0.25280   0.95330   1.000
    H82     H    0.58520   0.74720   0.95330   1.000
    H83     H    0.66480   0.99720   0.20330   1.000
    H84     H    0.83520   0.50280   0.20330   1.000
    H85     H    0.91480   0.75280   0.95330   1.000
    H86     H    0.08520   0.24720   0.95330   1.000
    H87     H    0.16480   0.49720   0.20330   1.000
    H88     H    0.33520   0.00280   0.20330   1.000
    H89     H    0.41480   0.75280   0.45330   1.000
    H90     H    0.58520   0.24720   0.45330   1.000
    H91     H    0.66480   0.49720   0.70330   1.000
    H92     H    0.83520   0.00280   0.70330   1.000
    C93     C    0.08440   0.85400   0.39310   1.000
    C94     C    0.16560   0.10400   0.64310   1.000
    C95     C    0.33440   0.39600   0.64310   1.000
    C96     C    0.41560   0.14600   0.89310   1.000
    C97     C    0.58440   0.85400   0.89310   1.000
    C98     C    0.66560   0.10400   0.14310   1.000
    C99     C    0.83440   0.39600   0.14310   1.000
    C100    C    0.91560   0.64600   0.89310   1.000
    C101    C    0.08440   0.35400   0.89310   1.000
    C102    C    0.16560   0.60400   0.14310   1.000
    C103    C    0.33440   0.89600   0.14310   1.000
    C104    C    0.41560   0.64600   0.39310   1.000
    C105    C    0.58440   0.35400   0.39310   1.000
    C106    C    0.66560   0.60400   0.64310   1.000
    C107    C    0.83440   0.89600   0.64310   1.000
    H108    H    0.07680   0.87320   0.42140   1.000
    H109    H    0.17320   0.12320   0.67140   1.000
    H110    H    0.32680   0.37680   0.67140   1.000
    H111    H    0.42320   0.12680   0.92140   1.000
    H112    H    0.57680   0.87320   0.92140   1.000
    H113    H    0.67320   0.12320   0.17140   1.000
    H114    H    0.82680   0.37680   0.17140   1.000
    H115    H    0.92320   0.62680   0.92140   1.000
    H116    H    0.07680   0.37320   0.92140   1.000
    H117    H    0.17320   0.62320   0.17140   1.000
    H118    H    0.32680   0.87680   0.17140   1.000
    H119    H    0.42320   0.62680   0.42140   1.000
    H120    H    0.57680   0.37320   0.42140   1.000
    H121    H    0.67320   0.62320   0.67140   1.000
    H122    H    0.82680   0.87680   0.67140   1.000
    H123    H    0.06760   0.85770   0.36740   1.000
    H124    H    0.18240   0.10770   0.61740   1.000
    H125    H    0.31760   0.39230   0.61740   1.000
    H126    H    0.43240   0.14230   0.86740   1.000
    H127    H    0.56760   0.85770   0.86740   1.000
    H128    H    0.68240   0.10770   0.11740   1.000
    H129    H    0.81760   0.39230   0.11740   1.000
    H130    H    0.93240   0.64230   0.86740   1.000
    H131    H    0.06760   0.35770   0.86740   1.000
    H132    H    0.18240   0.60770   0.11740   1.000
    H133    H    0.31760   0.89230   0.11740   1.000
    H134    H    0.43240   0.64230   0.36740   1.000
    H135    H    0.56760   0.35770   0.36740   1.000
    H136    H    0.68240   0.60770   0.61740   1.000
    H137    H    0.81760   0.89230   0.61740   1.000
    H138    H    0.10640   0.86760   0.38230   1.000
    H139    H    0.14360   0.11760   0.63230   1.000
    H140    H    0.35640   0.38240   0.63230   1.000
    H141    H    0.39360   0.13240   0.88230   1.000
    H142    H    0.60640   0.86760   0.88230   1.000
    H143    H    0.64360   0.11760   0.13230   1.000
    H144    H    0.85640   0.38240   0.13230   1.000
    H145    H    0.89360   0.63240   0.88230   1.000
    H146    H    0.10640   0.36760   0.88230   1.000
    H147    H    0.14360   0.61760   0.13230   1.000
    H148    H    0.35640   0.88240   0.13230   1.000
    H149    H    0.39360   0.63240   0.38230   1.000
    H150    H    0.60640   0.36760   0.38230   1.000
    H151    H    0.64360   0.61760   0.63230   1.000
    H152    H    0.85640   0.88240   0.63230   1.000
    C153    C    0.09670   0.76510   0.36330   1.000
    C154    C    0.15330   0.01510   0.61330   1.000
    C155    C    0.34670   0.48490   0.61330   1.000
    C156    C    0.40330   0.23490   0.86330   1.000
    C157    C    0.59670   0.76510   0.86330   1.000
    C158    C    0.65330   0.01510   0.11330   1.000
    C159    C    0.84670   0.48490   0.11330   1.000
    C160    C    0.90330   0.73490   0.86330   1.000
    C161    C    0.09670   0.26510   0.86330   1.000
    C162    C    0.15330   0.51510   0.11330   1.000
    C163    C    0.34670   0.98490   0.11330   1.000
    C164    C    0.40330   0.73490   0.36330   1.000
    C165    C    0.59670   0.26510   0.36330   1.000
    C166    C    0.65330   0.51510   0.61330   1.000
    C167    C    0.84670   0.98490   0.61330   1.000
    H168    H    0.09730   0.72970   0.37520   1.000
    H169    H    0.15270   0.97970   0.62520   1.000
    H170    H    0.34730   0.52030   0.62520   1.000
    H171    H    0.40270   0.27030   0.87520   1.000
    H172    H    0.59730   0.72970   0.87520   1.000
    H173    H    0.65270   0.97970   0.12520   1.000
    H174    H    0.84730   0.52030   0.12520   1.000
    H175    H    0.90270   0.77030   0.87520   1.000
    H176    H    0.09730   0.22970   0.87520   1.000
    H177    H    0.15270   0.47970   0.12520   1.000
    H178    H    0.34730   0.02030   0.12520   1.000
    H179    H    0.40270   0.77030   0.37520   1.000
    H180    H    0.59730   0.22970   0.37520   1.000
    H181    H    0.65270   0.47970   0.62520   1.000
    H182    H    0.84730   0.02030   0.62520   1.000
    H183    H    0.11910   0.77420   0.35000   1.000
    H184    H    0.13090   0.02420   0.60000   1.000
    H185    H    0.36910   0.47580   0.60000   1.000
    H186    H    0.38090   0.22580   0.85000   1.000
    H187    H    0.61910   0.77420   0.85000   1.000
    H188    H    0.63090   0.02420   0.10000   1.000
    H189    H    0.86910   0.47580   0.10000   1.000
    H190    H    0.88090   0.72580   0.85000   1.000
    H191    H    0.11910   0.27420   0.85000   1.000
    H192    H    0.13090   0.52420   0.10000   1.000
    H193    H    0.36910   0.97580   0.10000   1.000
    H194    H    0.38090   0.72580   0.35000   1.000
    H195    H    0.61910   0.27420   0.35000   1.000
    H196    H    0.63090   0.52420   0.60000   1.000
    H197    H    0.86910   0.97580   0.60000   1.000
    H198    H    0.07940   0.76810   0.33810   1.000
    H199    H    0.17060   0.01810   0.58810   1.000
    H200    H    0.32940   0.48190   0.58810   1.000
    H201    H    0.42060   0.23190   0.83810   1.000
    H202    H    0.57940   0.76810   0.83810   1.000
    H203    H    0.67060   0.01810   0.08810   1.000
    H204    H    0.82940   0.48190   0.08810   1.000
    H205    H    0.92060   0.73190   0.83810   1.000
    H206    H    0.07940   0.26810   0.83810   1.000
    H207    H    0.17060   0.51810   0.08810   1.000
    H208    H    0.32940   0.98190   0.08810   1.000
    H209    H    0.42060   0.73190   0.33810   1.000
    H210    H    0.57940   0.26810   0.33810   1.000
    H211    H    0.67060   0.51810   0.58810   1.000
    H212    H    0.82940   0.98190   0.58810   1.000
    N213    N    0.08370   0.01110   0.37820   1.000
    N214    N    0.16630   0.26110   0.62820   1.000
    N215    N    0.33370   0.23890   0.62820   1.000
    N216    N    0.41630   0.98890   0.87820   1.000
    N217    N    0.58370   0.01110   0.87820   1.000
    N218    N    0.66630   0.26110   0.12820   1.000
    N219    N    0.83370   0.23890   0.12820   1.000
    N220    N    0.91630   0.48890   0.87820   1.000
    N221    N    0.08370   0.51110   0.87820   1.000
    N222    N    0.16630   0.76110   0.12820   1.000
    N223    N    0.33370   0.73890   0.12820   1.000
    N224    N    0.41630   0.48890   0.37820   1.000
    N225    N    0.58370   0.51110   0.37820   1.000
    N226    N    0.66630   0.76110   0.62820   1.000
    N227    N    0.83370   0.73890   0.62820   1.000
    O228    O    0.67650   0.01100   0.53340   1.000
    O229    O    0.07080   0.01010   0.88270   1.000
    O230    O    0.17920   0.26010   0.13270   1.000
    O231    O    0.32080   0.23990   0.13270   1.000
    O232    O    0.42920   0.98990   0.38270   1.000
    O233    O    0.57080   0.01010   0.38270   1.000
    O234    O    0.67920   0.26010   0.63270   1.000
    O235    O    0.82080   0.23990   0.63270   1.000
    O236    O    0.92920   0.48990   0.38270   1.000
    O237    O    0.07080   0.51010   0.38270   1.000
    O238    O    0.17920   0.76010   0.63270   1.000
    O239    O    0.32080   0.73990   0.63270   1.000
    O240    O    0.42920   0.48990   0.88270   1.000
    O241    O    0.57080   0.51010   0.88270   1.000
    O242    O    0.67920   0.76010   0.13270   1.000
    O243    O    0.82080   0.73990   0.13270   1.000
    O244    O    0.07350   0.76100   0.78340   1.000
    O245    O    0.17650   0.01100   0.03340   1.000
    O246    O    0.32350   0.48900   0.03340   1.000
    O247    O    0.42650   0.23900   0.28340   1.000
    O248    O    0.57350   0.76100   0.28340   1.000
    O249    O    0.82350   0.48900   0.53340   1.000
    O250    O    0.92650   0.73900   0.28340   1.000
    O251    O    0.07350   0.26100   0.28340   1.000
    O252    O    0.17650   0.51100   0.53340   1.000
    O253    O    0.32350   0.98900   0.53340   1.000
    O254    O    0.42650   0.73900   0.78340   1.000
    O255    O    0.57350   0.26100   0.78340   1.000
    O256    O    0.67650   0.51100   0.03340   1.000
    O257    O    0.82350   0.98900   0.03340   1.000
    C258    C    0.04730   0.99660   0.38050   1.000
    C259    C    0.20270   0.24660   0.63050   1.000
    C260    C    0.29730   0.25340   0.63050   1.000
    C261    C    0.45270   0.00340   0.88050   1.000
    C262    C    0.54730   0.99660   0.88050   1.000
    C263    C    0.70270   0.24660   0.13050   1.000
    C264    C    0.79730   0.25340   0.13050   1.000
    C265    C    0.95270   0.50340   0.88050   1.000
    C266    C    0.04730   0.49660   0.88050   1.000
    C267    C    0.20270   0.74660   0.13050   1.000
    C268    C    0.29730   0.75340   0.13050   1.000
    C269    C    0.45270   0.50340   0.38050   1.000
    C270    C    0.54730   0.49660   0.38050   1.000
    C271    C    0.70270   0.74660   0.63050   1.000
    C272    C    0.79730   0.75340   0.63050   1.000
    C273    C    0.08900   0.06790   0.37480   1.000
    C274    C    0.16100   0.31790   0.62480   1.000
    C275    C    0.33900   0.18210   0.62480   1.000
    C276    C    0.41100   0.93210   0.87480   1.000
    C277    C    0.58900   0.06790   0.87480   1.000
    C278    C    0.66100   0.31790   0.12480   1.000
    C279    C    0.83900   0.18210   0.12480   1.000
    C280    C    0.91100   0.43210   0.87480   1.000
    C281    C    0.08900   0.56790   0.87480   1.000
    C282    C    0.16100   0.81790   0.12480   1.000
    C283    C    0.33900   0.68210   0.12480   1.000
    C284    C    0.41100   0.43210   0.37480   1.000
    C285    C    0.58900   0.56790   0.37480   1.000
    C286    C    0.66100   0.81790   0.62480   1.000
    C287    C    0.83900   0.68210   0.62480   1.000
    N288    N    0.00110   0.93110   0.46400   1.000
    N289    N    0.24890   0.18110   0.71400   1.000
    N290    N    0.25110   0.31890   0.71400   1.000
    N291    N    0.49890   0.06890   0.96400   1.000
    N292    N    0.50110   0.93110   0.96400   1.000
    N293    N    0.74890   0.18110   0.21400   1.000
    N294    N    0.75110   0.31890   0.21400   1.000
    N295    N    0.99890   0.56890   0.96400   1.000
    N296    N    0.00110   0.43110   0.96400   1.000
    N297    N    0.24890   0.68110   0.21400   1.000
    N298    N    0.25110   0.81890   0.21400   1.000
    N299    N    0.49890   0.56890   0.46400   1.000
    N300    N    0.50110   0.43110   0.46400   1.000
    N301    N    0.74890   0.68110   0.71400   1.000
    N302    N    0.75110   0.81890   0.71400   1.000
    C303    C    0.25000   0.25000   0.74470   1.000
    C304    C    0.50000   0.00000   0.99470   1.000
    C305    C    0.75000   0.25000   0.24470   1.000
    C306    C    0.00000   0.50000   0.99470   1.000
    C307    C    0.25000   0.75000   0.24470   1.000
    C308    C    0.50000   0.50000   0.49470   1.000
    C309    C    0.75000   0.75000   0.74470   1.000
    C310    C    0.95540   0.90560   0.46380   1.000
    C311    C    0.29460   0.15560   0.71380   1.000
    C312    C    0.20540   0.34440   0.71380   1.000
    C313    C    0.54460   0.09440   0.96380   1.000
    C314    C    0.45540   0.90560   0.96380   1.000
    C315    C    0.79460   0.15560   0.21380   1.000
    C316    C    0.70540   0.34440   0.21380   1.000
    C317    C    0.04460   0.59440   0.96380   1.000
    C318    C    0.95540   0.40560   0.96380   1.000
    C319    C    0.29460   0.65560   0.21380   1.000
    C320    C    0.20540   0.84440   0.21380   1.000
    C321    C    0.54460   0.59440   0.46380   1.000
    C322    C    0.45540   0.40560   0.46380   1.000
    C323    C    0.79460   0.65560   0.71380   1.000
    C324    C    0.70540   0.84440   0.71380   1.000
    N325    N    0.08500   0.76750   0.86340   1.000
    N326    N    0.16500   0.01750   0.11340   1.000
    N327    N    0.33500   0.48250   0.11340   1.000
    N328    N    0.41500   0.23250   0.36340   1.000
    N329    N    0.58500   0.76750   0.36340   1.000
    N330    N    0.66500   0.01750   0.61340   1.000
    N331    N    0.83500   0.48250   0.61340   1.000
    N332    N    0.91500   0.73250   0.36340   1.000
    N333    N    0.08500   0.26750   0.36340   1.000
    N334    N    0.16500   0.51750   0.61340   1.000
    N335    N    0.33500   0.98250   0.61340   1.000
    N336    N    0.41500   0.73250   0.86340   1.000
    N337    N    0.58500   0.26750   0.86340   1.000
    N338    N    0.66500   0.51750   0.11340   1.000
    N339    N    0.83500   0.98250   0.11340   1.000
    C340    C    0.07030   0.77980   0.82010   1.000
    C341    C    0.17970   0.02980   0.07010   1.000
    C342    C    0.32030   0.47020   0.07010   1.000
    C343    C    0.42970   0.22020   0.32010   1.000
    C344    C    0.57030   0.77980   0.32010   1.000
    C345    C    0.67970   0.02980   0.57010   1.000
    C346    C    0.82030   0.47020   0.57010   1.000
    C347    C    0.92970   0.72020   0.32010   1.000
    C348    C    0.07030   0.27980   0.32010   1.000
    C349    C    0.17970   0.52980   0.57010   1.000
    C350    C    0.32030   0.97020   0.57010   1.000
    C351    C    0.42970   0.72020   0.82010   1.000
    C352    C    0.57030   0.27980   0.82010   1.000
    C353    C    0.67970   0.52980   0.07010   1.000
    C354    C    0.82030   0.97020   0.07010   1.000
    C355    C    0.08510   0.80290   0.90880   1.000
    C356    C    0.16490   0.05290   0.15880   1.000
    C357    C    0.33510   0.44710   0.15880   1.000
    C358    C    0.41490   0.19710   0.40880   1.000
    C359    C    0.58510   0.80290   0.40880   1.000
    C360    C    0.66490   0.05290   0.65880   1.000
    C361    C    0.83510   0.44710   0.65880   1.000
    C362    C    0.91490   0.69710   0.40880   1.000
    C363    C    0.08510   0.30290   0.40880   1.000
    C364    C    0.16490   0.55290   0.65880   1.000
    C365    C    0.33510   0.94710   0.65880   1.000
    C366    C    0.41490   0.69710   0.90880   1.000
    C367    C    0.58510   0.30290   0.90880   1.000
    C368    C    0.66490   0.55290   0.15880   1.000
    C369    C    0.83510   0.94710   0.15880   1.000
    C370    C    0.10240   0.71650   0.88700   1.000
    C371    C    0.14760   0.96650   0.13700   1.000
    C372    C    0.35240   0.53350   0.13700   1.000
    C373    C    0.39760   0.28350   0.38700   1.000
    C374    C    0.60240   0.71650   0.38700   1.000
    C375    C    0.64760   0.96650   0.63700   1.000
    C376    C    0.85240   0.53350   0.63700   1.000
    C377    C    0.89760   0.78350   0.38700   1.000
    C378    C    0.10240   0.21650   0.38700   1.000
    C379    C    0.14760   0.46650   0.63700   1.000
    C380    C    0.35240   0.03350   0.63700   1.000
    C381    C    0.39760   0.78350   0.88700   1.000
    C382    C    0.60240   0.21650   0.88700   1.000
    C383    C    0.64760   0.46650   0.13700   1.000
    C384    C    0.85240   0.03350   0.13700   1.000
    O385    O    0.99940   0.57240   0.79830   1.000
    O386    O    0.25060   0.82240   0.04830   1.000
    O387    O    0.24940   0.67760   0.04830   1.000
    O388    O    0.50060   0.42760   0.29830   1.000
    O389    O    0.49940   0.57240   0.29830   1.000
    O390    O    0.75060   0.82240   0.54830   1.000
    O391    O    0.74940   0.67760   0.54830   1.000
    O392    O    0.00060   0.92760   0.29830   1.000
    O393    O    0.99940   0.07240   0.29830   1.000
    O394    O    0.25060   0.32240   0.54830   1.000
    O395    O    0.24940   0.17760   0.54830   1.000
    O396    O    0.50060   0.92760   0.79830   1.000
    O397    O    0.49940   0.07240   0.79830   1.000
    O398    O    0.75060   0.32240   0.04830   1.000
    O399    O    0.74940   0.17760   0.04830   1.000
    O400    O    0.25000   0.75000   0.00900   1.000
    O401    O    0.50000   0.50000   0.25900   1.000
    O402    O    0.75000   0.75000   0.50900   1.000
    O403    O    0.00000   0.00000   0.25900   1.000
    O404    O    0.25000   0.25000   0.50900   1.000
    O405    O    0.50000   0.00000   0.75900   1.000
    O406    O    0.75000   0.25000   0.00900   1.000
    O407    O    0.99980   0.61900   0.42900   1.000
    O408    O    0.25020   0.86900   0.67900   1.000
    O409    O    0.24980   0.63100   0.67900   1.000
    O410    O    0.50020   0.38100   0.92900   1.000
    O411    O    0.49980   0.61900   0.92900   1.000
    O412    O    0.75020   0.86900   0.17900   1.000
    O413    O    0.74980   0.63100   0.17900   1.000
    O414    O    0.00020   0.88100   0.92900   1.000
    O415    O    0.99980   0.11900   0.92900   1.000
    O416    O    0.25020   0.36900   0.17900   1.000
    O417    O    0.24980   0.13100   0.17900   1.000
    O418    O    0.50020   0.88100   0.42900   1.000
    O419    O    0.49980   0.11900   0.42900   1.000
    O420    O    0.75020   0.36900   0.67900   1.000
    O421    O    0.74980   0.13100   0.67900   1.000
    O422    O    0.07400   0.59900   0.38800   1.000
    O423    O    0.17600   0.84900   0.63800   1.000
    O424    O    0.32400   0.65100   0.63800   1.000
    O425    O    0.42600   0.40100   0.88800   1.000
    O426    O    0.57400   0.59900   0.88800   1.000
    O427    O    0.67600   0.84900   0.13800   1.000
    O428    O    0.82400   0.65100   0.13800   1.000
    O429    O    0.92600   0.90100   0.88800   1.000
    O430    O    0.07400   0.09900   0.88800   1.000
    O431    O    0.17600   0.34900   0.13800   1.000
    O432    O    0.32400   0.15100   0.13800   1.000
    O433    O    0.42600   0.90100   0.38800   1.000
    O434    O    0.57400   0.09900   0.38800   1.000
    O435    O    0.67600   0.34900   0.63800   1.000
    O436    O    0.82400   0.15100   0.63800   1.000
    C437    C    0.00100   0.59600   0.38800   1.000
    C438    C    0.24900   0.84600   0.63800   1.000
    C439    C    0.25100   0.65400   0.63800   1.000
    C440    C    0.49900   0.40400   0.88800   1.000
    C441    C    0.50100   0.59600   0.88800   1.000
    C442    C    0.74900   0.84600   0.13800   1.000
    C443    C    0.75100   0.65400   0.13800   1.000
    C444    C    0.99900   0.90400   0.88800   1.000
    C445    C    0.00100   0.09600   0.88800   1.000
    C446    C    0.24900   0.34600   0.13800   1.000
    C447    C    0.25100   0.15400   0.13800   1.000
    C448    C    0.49900   0.90400   0.38800   1.000
    C449    C    0.50100   0.09600   0.38800   1.000
    C450    C    0.74900   0.34600   0.63800   1.000
    C451    C    0.75100   0.15400   0.63800   1.000
    C452    C    0.05100   0.60800   0.40100   1.000
    C453    C    0.19900   0.85800   0.65100   1.000
    C454    C    0.30100   0.64200   0.65100   1.000
    C455    C    0.44900   0.39200   0.90100   1.000
    C456    C    0.55100   0.60800   0.90100   1.000
    C457    C    0.69900   0.85800   0.15100   1.000
    C458    C    0.80100   0.64200   0.15100   1.000
    C459    C    0.94900   0.89200   0.90100   1.000
    C460    C    0.05100   0.10800   0.90100   1.000
    C461    C    0.19900   0.35800   0.15100   1.000
    C462    C    0.30100   0.14200   0.15100   1.000
    C463    C    0.44900   0.89200   0.40100   1.000
    C464    C    0.55100   0.10800   0.40100   1.000
    C465    C    0.69900   0.35800   0.65100   1.000
    C466    C    0.80100   0.14200   0.65100   1.000
    O467    O    0.99730   0.95760   0.78090   1.000
    O468    O    0.25270   0.20760   0.03090   1.000
    O469    O    0.24730   0.29240   0.03090   1.000
    O470    O    0.50270   0.04240   0.28090   1.000
    O471    O    0.49730   0.95760   0.28090   1.000
    O472    O    0.75270   0.20760   0.53090   1.000
    O473    O    0.74730   0.29240   0.53090   1.000
    O474    O    0.00270   0.54240   0.28090   1.000
    O475    O    0.99730   0.45760   0.28090   1.000
    O476    O    0.25270   0.70760   0.53090   1.000
    O477    O    0.24730   0.79240   0.53090   1.000
    O478    O    0.50270   0.54240   0.78090   1.000
    O479    O    0.49730   0.45760   0.78090   1.000
    O480    O    0.75270   0.70760   0.03090   1.000
    O481    O    0.74730   0.79240   0.03090   1.000
    C482    C    0.99940   0.54400   0.75900   1.000
    C483    C    0.25060   0.79400   0.00900   1.000
    C484    C    0.24940   0.70600   0.00900   1.000
    C485    C    0.50060   0.45600   0.25900   1.000
    C486    C    0.49940   0.54400   0.25900   1.000
    C487    C    0.75060   0.79400   0.50900   1.000
    C488    C    0.74940   0.70600   0.50900   1.000
    C489    C    0.00060   0.95600   0.25900   1.000
    C490    C    0.99940   0.04400   0.25900   1.000
    C491    C    0.25060   0.29400   0.50900   1.000
    C492    C    0.24940   0.20600   0.50900   1.000
    C493    C    0.50060   0.95600   0.75900   1.000
    C494    C    0.49940   0.04400   0.75900   1.000
    C495    C    0.75060   0.29400   0.00900   1.000
    C496    C    0.74940   0.20600   0.00900   1.000
    C497    C    0.04270   0.59200   0.78800   1.000
    C498    C    0.20730   0.84200   0.03800   1.000
    C499    C    0.29270   0.65800   0.03800   1.000
    C500    C    0.45730   0.40800   0.28800   1.000
    C501    C    0.54270   0.59200   0.28800   1.000
    C502    C    0.70730   0.84200   0.53800   1.000
    C503    C    0.79270   0.65800   0.53800   1.000
    C504    C    0.95730   0.90800   0.28800   1.000
    C505    C    0.04270   0.09200   0.28800   1.000
    C506    C    0.20730   0.34200   0.53800   1.000
    C507    C    0.29270   0.15800   0.53800   1.000
    C508    C    0.45730   0.90800   0.78800   1.000
    C509    C    0.54270   0.09200   0.78800   1.000
    C510    C    0.70730   0.34200   0.03800   1.000
    C511    C    0.79270   0.15800   0.03800   1.000
loop_
    _geom_bond_atom_site_label_1
    _geom_bond_atom_site_label_2
    _geom_bond_distance
    _geom_bond_site_symmetry_2
    _ccdc_geom_bond_type
    O400   C483      1.14503      .   S
    O400   C484      1.14503      .   S
    O406   C495      1.14503      .   S
    O406   C496      1.14503      .   S
    C483   O386      1.32179      .   S
    C484   O387      1.32179      .   S
    C495   O398      1.32179      .   S
    C496   O399      1.32179      .   S
    O245   C341      1.14126      .   S
    O246   C342      1.14126      .   S
    O256   C353      1.14126      .   S
    O257   C354      1.14126      .   S
    C498   O386      1.79634      .   S
    C499   O387      1.79634      .   S
    C510   O398      1.79634      .   S
    C511   O399      1.79634      .   S
    C354   N339      1.37583      .   S
    C353   N338      1.37583      .   S
    C341   N326      1.37583      .   S
    C342   N327      1.37583      .   S
    H204   C159      0.97999      .   S
    H203   C158      0.97999      .   S
    H207   C162      0.97999      .   S
    H208   C163      0.97999      .   S
    H188   C158      0.98260      .   S
    H189   C159      0.98260      .   S
    H193   C163      0.98260      .   S
    H192   C162      0.98260      .   S
    C162   H177      0.97928      .   S
    C162   N57       1.54773      .   S
    C163   H178      0.97928  1_565   S
    C163   N58       1.54773      .   S
    C159   H174      0.97928      .   S
    C159   N54       1.54773      .   S
    C158   H173      0.97928  1_545   S
    C158   N53       1.54773      .   S
    N327   C372      1.63083      .   S
    N327   C357      1.56565      .   S
    N326   C371      1.63083  1_545   S
    N326   C356      1.56565      .   S
    N339   C384      1.63083  1_565   S
    N339   C369      1.56565      .   S
    N338   C383      1.63083      .   S
    N338   C368      1.56565      .   S
    H128   C98       0.97832      .   S
    H129   C99       0.97832      .   S
    H132   C102      0.97832      .   S
    H133   C103      0.97832      .   S
    C282   N222      1.49538      .   S
    C279   N219      1.49538      .   S
    C283   N223      1.49538      .   S
    C278   N218      1.49538      .   S
    N223   C268      1.47808      .   S
    N222   C267      1.47808      .   S
    N218   C263      1.47808      .   S
    N219   C264      1.47808      .   S
    H143   C98       0.98004      .   S
    H144   C99       0.98004      .   S
    H148   C103      0.98004      .   S
    H147   C102      0.98004      .   S
    O431   C461      1.00003      .   S
    O432   C462      1.00003      .   S
    C442   O412      1.29136      .   S
    O428   C458      1.00003      .   S
    O427   C457      1.00003      .   S
    C446   O416      1.29136      .   S
    C447   O417      1.29136      .   S
    C443   O413      1.29136      .   S
    C99    N54       1.39767      .   S
    C99    H114      0.98043      .   S
    C98    N53       1.39767      .   S
    C98    H113      0.98043      .   S
    C102   N57       1.39767      .   S
    C102   H117      0.98043      .   S
    C103   N58       1.39767      .   S
    C103   H118      0.98043      .   S
    N58    C73       1.33797      .   S
    N53    C68       1.33797      .   S
    N57    C72       1.33797      .   S
    N54    C69       1.33797      .   S
    C72    H87       0.95082      .   S
    C72    O42       1.18320      .   S
    C69    H84       0.95082      .   S
    C69    O39       1.18320      .   S
    C68    H83       0.95082  1_545   S
    C68    O38       1.18320      .   S
    C73    H88       0.95082  1_565   S
    C73    O43       1.18320      .   S
    C319   N297      1.91130      .   S
    C316   N294      1.91130      .   S
    C320   N298      1.91130      .   S
    C315   N293      1.91130      .   S
    C486   O401      1.14503      .   S
    C486   O389      1.32179      .   S
    O401   C485      1.14503      .   S
    C489   O403      1.14503  1_565   S
    C489   O392      1.32179      .   S
    C490   O403      1.14503  1_655   S
    C490   O393      1.32179      .   S
    C485   O388      1.32179      .   S
    O250   C347      1.14126      .   S
    O248   C344      1.14126      .   S
    O247   C343      1.14126      .   S
    O251   C348      1.14126      .   S
    C504   O392      1.79634  1_655   S
    C500   O388      1.79634      .   S
    C501   O389      1.79634      .   S
    C505   O393      1.79634  1_455   S
    C348   N333      1.37583      .   S
    C347   N332      1.37583      .   S
    C344   N329      1.37583      .   S
    C343   N328      1.37583      .   S
    H11    C8        0.97999      .   S
    H198   C153      0.97999      .   S
    H210   C165      0.97999      .   S
    H209   C164      0.97999      .   S
    H194   C164      0.98260      .   S
    H195   C165      0.98260      .   S
    H183   C153      0.98260      .   S
    H10    C8        0.98260      .   S
    C8     H9        0.97928      .   S
    C8     N1        1.54773      .   S
    C164   H179      0.97928      .   S
    C164   N59       1.54773      .   S
    C165   H180      0.97928      .   S
    C165   N60       1.54773      .   S
    C153   H168      0.97928      .   S
    C153   N48       1.54773      .   S
    N332   C377      1.63083      .   S
    N332   C362      1.56565      .   S
    N328   C373      1.63083      .   S
    N328   C358      1.56565      .   S
    N329   C374      1.63083      .   S
    N329   C359      1.56565      .   S
    N333   C378      1.63083      .   S
    N333   C363      1.56565      .   S
    H6     C4        0.97832      .   S
    H123   C93       0.97832      .   S
    H134   C104      0.97832      .   S
    H135   C105      0.97832      .   S
    C16    N12       1.49538      .   S
    C273   N213      1.49538      .   S
    C284   N224      1.49538      .   S
    C285   N225      1.49538      .   S
    N12    C15       1.47808  1_565   S
    N225   C270      1.47808      .   S
    N213   C258      1.47808  1_545   S
    N224   C269      1.47808      .   S
    H7     C4        0.98004      .   S
    H150   C105      0.98004      .   S
    H149   C104      0.98004      .   S
    H138   C93       0.98004      .   S
    C28    O26       1.29136  1_655   S
    O27    C29       1.00003      .   S
    C449   O419      1.29136      .   S
    O433   C463      1.00003      .   S
    O422   C452      1.00003      .   S
    O434   C464      1.00003      .   S
    C437   O407      1.29136  1_455   S
    C448   O418      1.29136      .   S
    C4     N1        1.39767      .   S
    C4     H5        0.98043      .   S
    C104   N59       1.39767      .   S
    C104   H119      0.98043      .   S
    C93    N48       1.39767      .   S
    C93    H108      0.98043      .   S
    C105   N60       1.39767      .   S
    C105   H120      0.98043      .   S
    N1     C2        1.33797      .   S
    N59    C74       1.33797      .   S
    N60    C75       1.33797      .   S
    N48    C63       1.33797      .   S
    C2     H3        0.95082      .   S
    C2     O0        1.18320      .   S
    C75    H90       0.95082      .   S
    C75    O45       1.18320      .   S
    C74    H89       0.95082      .   S
    C74    O44       1.18320      .   S
    C63    H78       0.95082      .   S
    C63    O33       1.18320      .   S
    C19    N17       1.91130  1_455   S
    C310   N288      1.91130  1_655   S
    C321   N299      1.91130      .   S
    C322   N300      1.91130      .   S
    C491   O404      1.14503      .   S
    C491   O394      1.32179      .   S
    O402   C488      1.14503      .   S
    O402   C487      1.14503      .   S
    C488   O391      1.32179      .   S
    O404   C492      1.14503      .   S
    C487   O390      1.32179      .   S
    C492   O395      1.32179      .   S
    O253   C350      1.14126      .   S
    O252   C349      1.14126      .   S
    O228   C345      1.14126      .   S
    O249   C346      1.14126      .   S
    C502   O390      1.79634      .   S
    C503   O391      1.79634      .   S
    C506   O394      1.79634      .   S
    C507   O395      1.79634      .   S
    C350   N335      1.37583      .   S
    C349   N334      1.37583      .   S
    C346   N331      1.37583      .   S
    C345   N330      1.37583      .   S
    H200   C155      0.97999      .   S
    H199   C154      0.97999      .   S
    H212   C167      0.97999      .   S
    H211   C166      0.97999      .   S
    H184   C154      0.98260      .   S
    H197   C167      0.98260      .   S
    H185   C155      0.98260      .   S
    H196   C166      0.98260      .   S
    C154   H169      0.97928  1_545   S
    C154   N49       1.54773      .   S
    C167   H182      0.97928  1_565   S
    C167   N62       1.54773      .   S
    C155   H170      0.97928      .   S
    C155   N50       1.54773      .   S
    C166   H181      0.97928      .   S
    C166   N61       1.54773      .   S
    N331   C376      1.63083      .   S
    N331   C361      1.56565      .   S
    N334   C379      1.63083      .   S
    N334   C364      1.56565      .   S
    N335   C380      1.63083  1_565   S
    N335   C365      1.56565      .   S
    N330   C375      1.63083  1_545   S
    N330   C360      1.56565      .   S
    H137   C107      0.97832      .   S
    H136   C106      0.97832      .   S
    H125   C95       0.97832      .   S
    H124   C94       0.97832      .   S
    C287   N227      1.49538      .   S
    C286   N226      1.49538      .   S
    C275   N215      1.49538      .   S
    C274   N214      1.49538      .   S
    N226   C271      1.47808      .   S
    N215   C260      1.47808      .   S
    N214   C259      1.47808      .   S
    N227   C272      1.47808      .   S
    H140   C95       0.98004      .   S
    H151   C106      0.98004      .   S
    H152   C107      0.98004      .   S
    H139   C94       0.98004      .   S
    C438   O408      1.29136      .   S
    O423   C453      1.00003      .   S
    C451   O421      1.29136      .   S
    C439   O409      1.29136      .   S
    C450   O420      1.29136      .   S
    O424   C454      1.00003      .   S
    O436   C466      1.00003      .   S
    O435   C465      1.00003      .   S
    C95    N50       1.39767      .   S
    C95    H110      0.98043      .   S
    C94    N49       1.39767      .   S
    C94    H109      0.98043      .   S
    C107   N62       1.39767      .   S
    C107   H122      0.98043      .   S
    C106   N61       1.39767      .   S
    C106   H121      0.98043      .   S
    N49    C64       1.33797      .   S
    N50    C65       1.33797      .   S
    N62    C77       1.33797      .   S
    N61    C76       1.33797      .   S
    C76    H91       0.95082      .   S
    C76    O46       1.18320      .   S
    C65    H80       0.95082      .   S
    C65    O35       1.18320      .   S
    C64    H79       0.95082  1_545   S
    C64    O34       1.18320      .   S
    C77    H92       0.95082  1_565   S
    C77    O47       1.18320      .   S
    C311   N289      1.91130      .   S
    C312   N290      1.91130      .   S
    C323   N301      1.91130      .   S
    C324   N302      1.91130      .   S
    C31    O25       1.14503      .   S
    C31    O24       1.32179      .   S
    O25    C482      1.14503  1_455   S
    C482   O385      1.32179      .   S
    C494   O405      1.14503      .   S
    C494   O397      1.32179      .   S
    O405   C493      1.14503  1_545   S
    C493   O396      1.32179      .   S
    O14    C21       1.14126      .   S
    O244   C340      1.14126      .   S
    O254   C351      1.14126      .   S
    O255   C352      1.14126      .   S
    C32    O24       1.79634  1_655   S
    C509   O397      1.79634      .   S
    C497   O385      1.79634  1_455   S
    C508   O396      1.79634      .   S
    C21    N20       1.37583      .   S
    C352   N337      1.37583      .   S
    C340   N325      1.37583      .   S
    C351   N336      1.37583      .   S
    H201   C156      0.97999      .   S
    H202   C157      0.97999      .   S
    H205   C160      0.97999      .   S
    H206   C161      0.97999      .   S
    H191   C161      0.98260      .   S
    H190   C160      0.98260      .   S
    H187   C157      0.98260      .   S
    H186   C156      0.98260      .   S
    C161   H176      0.97928      .   S
    C161   N56       1.54773      .   S
    C160   H175      0.97928      .   S
    C160   N55       1.54773      .   S
    C157   H172      0.97928      .   S
    C157   N52       1.54773      .   S
    C156   H171      0.97928      .   S
    C156   N51       1.54773      .   S
    N20    C23       1.63083      .   S
    N20    C22       1.56565      .   S
    N325   C370      1.63083      .   S
    N325   C355      1.56565      .   S
    N337   C382      1.63083      .   S
    N337   C367      1.56565      .   S
    N336   C381      1.63083      .   S
    N336   C366      1.56565      .   S
    H126   C96       0.97832      .   S
    H131   C101      0.97832      .   S
    H130   C100      0.97832      .   S
    H127   C97       0.97832      .   S
    C281   N221      1.49538      .   S
    C280   N220      1.49538      .   S
    C277   N217      1.49538      .   S
    C276   N216      1.49538      .   S
    N216   C261      1.47808  1_565   S
    N217   C262      1.47808  1_545   S
    N220   C265      1.47808      .   S
    N221   C266      1.47808      .   S
    H146   C101      0.98004      .   S
    H145   C100      0.98004      .   S
    H142   C97       0.98004      .   S
    H141   C96       0.98004      .   S
    C441   O411      1.29136      .   S
    O430   C460      1.00003      .   S
    O425   C455      1.00003      .   S
    C445   O415      1.29136  1_455   S
    C444   O414      1.29136  1_655   S
    O429   C459      1.00003      .   S
    C440   O410      1.29136      .   S
    O426   C456      1.00003      .   S
    C101   N56       1.39767      .   S
    C101   H116      0.98043      .   S
    C100   N55       1.39767      .   S
    C100   H115      0.98043      .   S
    C97    N52       1.39767      .   S
    C97    H112      0.98043      .   S
    C96    N51       1.39767      .   S
    C96    H111      0.98043      .   S
    N52    C67       1.33797      .   S
    N51    C66       1.33797      .   S
    N55    C70       1.33797      .   S
    N56    C71       1.33797      .   S
    C71    H86       0.95082      .   S
    C71    O41       1.18320      .   S
    C66    H81       0.95082      .   S
    C66    O36       1.18320      .   S
    C70    H85       0.95082      .   S
    C70    O40       1.18320      .   S
    C67    H82       0.95082      .   S
    C67    O37       1.18320      .   S
    C318   N296      1.91130  1_655   S
    C317   N295      1.91130  1_455   S
    C314   N292      1.91130      .   S
    C313   N291      1.91130      .   S
