# CIF file generated by openbabel 2.4.90, see http://openbabel.sf.net
data_I
_chemical_name_common ''
_cell_length_a 39.222
_cell_length_b 26.018
_cell_length_c 27.887
_cell_angle_alpha 90
_cell_angle_beta 90
_cell_angle_gamma 90
_space_group_name_H-M_alt 'P 1'
_space_group_name_Hall 'P 1'
loop_
    _symmetry_equiv_pos_as_xyz
    x,y,z
loop_
    _atom_site_label
    _atom_site_type_symbol
    _atom_site_fract_x
    _atom_site_fract_y
    _atom_site_fract_z
    _atom_site_occupancy
    O0      O    0.15257   0.48090   0.83440   1.000
    O1      O    0.84829   0.00150   0.83270   1.000
    O2      O    0.81786   0.05430   0.78430   1.000
    O3      O    0.81637   0.05290   0.48230   1.000
    O4      O    0.15218   0.48590   0.42510   1.000
    O5      O    0.00919   0.18980   0.26150   1.000
    O6      O    0.07849   0.33900   0.66810   1.000
    O7      O    0.84718   0.00610   0.42950   1.000
    O8      O    0.18238   0.41970   0.45740   1.000
    O9      O    0.92138   0.15060   0.59370   1.000
    O10     O    0.03232   0.36580   0.71000   1.000
    O11     O    0.00865   0.18130   0.49660   1.000
    O12     O    0.18320   0.42280   0.79280   1.000
    O13     O    0.99170   0.27270   0.27480   1.000
    O14     O    0.92244   0.16310   0.68750   1.000
    O15     O    0.07750   0.32590   0.57010   1.000
    O16     O    0.96944   0.14400   0.73090   1.000
    C17     C    0.06330   0.36450   0.70090   1.000
    O18     O    0.99240   0.26680   0.48470   1.000
    C19     C    0.12380   0.42160   0.46680   1.000
    C20     C    0.15610   0.44590   0.80290   1.000
    C21     C    0.08540   0.39550   0.73350   1.000
    C22     C    0.91780   0.10480   0.75050   1.000
    O23     O    0.03102   0.33990   0.52340   1.000
    C24     C    0.84530   0.03600   0.80120   1.000
    C25     C    0.93690   0.12120   0.56510   1.000
    C26     C    0.93830   0.14080   0.72040   1.000
    C27     C    0.15530   0.44460   0.44850   1.000
    C28     C    0.84360   0.03460   0.46570   1.000
    C29     C    0.88300   0.09610   0.74860   1.000
    H30     H    0.86670   0.11160   0.72790   1.000
    C31     C    0.00190   0.21360   0.41900   1.000
    N32     N    0.90586   0.03190   0.47350   1.000
    N33     N    0.93159   0.05560   0.50170   1.000
    C34     C    0.91536   0.08830   0.53550   1.000
    C35     C    0.87961   0.08480   0.52810   1.000
    H36     H    0.86260   0.10270   0.54580   1.000
    C37     C    0.87374   0.05000   0.48980   1.000
    N38     N    0.90720   0.04810   0.80460   1.000
    C39     C    0.00120   0.22120   0.47170   1.000
    C40     C    0.12390   0.43050   0.77770   1.000
    N41     N    0.09490   0.45070   0.79150   1.000
    C42     C    0.11780   0.38570   0.50180   1.000
    H43     H    0.13430   0.36870   0.52100   1.000
    N44     N    0.07180   0.42850   0.76420   1.000
    N45     N    0.09250   0.43700   0.44950   1.000
    C46     C    0.06200   0.34550   0.53430   1.000
    O47     O    0.96844   0.11880   0.55800   1.000
    N48     N    0.06740   0.41130   0.47150   1.000
    C49     C    0.99610   0.24630   0.38030   1.000
    H50     H    0.98990   0.28150   0.38150   1.000
    C51     C    0.11940   0.39550   0.74070   1.000
    H52     H    0.13630   0.37600   0.72440   1.000
    N53     N    0.00960   0.16550   0.40180   1.000
    N54     N    0.00920   0.16860   0.35400   1.000
    N55     N    0.93150   0.07540   0.78400   1.000
    C56     C    0.08290   0.37910   0.50350   1.000
    C57     C    0.00110   0.21720   0.34060   1.000
    C58     C    0.99990   0.22740   0.28830   1.000
    C59     C    0.87770   0.06020   0.78320   1.000
    O60     O    0.09743   0.23090   0.58440   1.000
    O61     O    0.65257   0.98090   0.83440   1.000
    O62     O    0.34743   0.01910   0.83440   1.000
    O63     O    0.90257   0.26910   0.08440   1.000
    O64     O    0.43238   0.83030   0.70740   1.000
    O65     O    0.06762   0.66970   0.70740   1.000
    O66     O    0.68238   0.41970   0.95740   1.000
    O67     O    0.31762   0.58030   0.95740   1.000
    O68     O    0.93238   0.83030   0.20740   1.000
    O69     O    0.56762   0.66970   0.20740   1.000
    O70     O    0.84743   0.51910   0.83440   1.000
    O71     O    0.40257   0.76910   0.08440   1.000
    O72     O    0.09743   0.73090   0.08440   1.000
    O73     O    0.65257   0.48090   0.33440   1.000
    O74     O    0.34743   0.51910   0.33440   1.000
    O75     O    0.90257   0.76910   0.58440   1.000
    O76     O    0.59743   0.73090   0.58440   1.000
    O77     O    0.15257   0.98090   0.33440   1.000
    O78     O    0.84743   0.01910   0.33440   1.000
    O79     O    0.40257   0.26910   0.58440   1.000
    O80     O    0.81680   0.57720   0.79280   1.000
    O81     O    0.43320   0.82720   0.04280   1.000
    O82     O    0.59743   0.23090   0.08440   1.000
    O83     O    0.15171   0.99850   0.83270   1.000
    O84     O    0.09829   0.24850   0.08270   1.000
    O85     O    0.40171   0.25150   0.08270   1.000
    O86     O    0.34829   0.00150   0.33270   1.000
    O87     O    0.65171   0.99850   0.33270   1.000
    O88     O    0.59829   0.24850   0.58270   1.000
    O89     O    0.90171   0.25150   0.58270   1.000
    O90     O    0.84829   0.50150   0.33270   1.000
    O91     O    0.15171   0.49850   0.33270   1.000
    O92     O    0.09829   0.74850   0.58270   1.000
    O93     O    0.40171   0.75150   0.58270   1.000
    O94     O    0.34829   0.50150   0.83270   1.000
    O95     O    0.65171   0.49850   0.83270   1.000
    O96     O    0.59829   0.74850   0.08270   1.000
    O97     O    0.90171   0.75150   0.08270   1.000
    O98     O    0.18214   0.94570   0.78430   1.000
    O99     O    0.06786   0.19570   0.03430   1.000
    O100    O    0.43214   0.30430   0.03430   1.000
    O101    O    0.31786   0.05430   0.28430   1.000
    O102    O    0.68214   0.94570   0.28430   1.000
    O103    O    0.56786   0.19570   0.53430   1.000
    O104    O    0.93214   0.30430   0.53430   1.000
    O105    O    0.81786   0.55430   0.28430   1.000
    O106    O    0.18214   0.44570   0.28430   1.000
    O107    O    0.06786   0.69570   0.53430   1.000
    O108    O    0.43214   0.80430   0.53430   1.000
    O109    O    0.31786   0.55430   0.78430   1.000
    O110    O    0.68214   0.44570   0.78430   1.000
    O111    O    0.56786   0.69570   0.03430   1.000
    O112    O    0.93214   0.80430   0.03430   1.000
    O113    O    0.18363   0.94710   0.48230   1.000
    O114    O    0.06637   0.19710   0.73230   1.000
    O115    O    0.43363   0.30290   0.73230   1.000
    O116    O    0.31637   0.05290   0.98230   1.000
    O117    O    0.68363   0.94710   0.98230   1.000
    O118    O    0.56637   0.19710   0.23230   1.000
    O119    O    0.93363   0.30290   0.23230   1.000
    O120    O    0.81637   0.55290   0.98230   1.000
    O121    O    0.18363   0.44710   0.98230   1.000
    O122    O    0.06637   0.69710   0.23230   1.000
    O123    O    0.43363   0.80290   0.23230   1.000
    O124    O    0.31637   0.55290   0.48230   1.000
    O125    O    0.68363   0.44710   0.48230   1.000
    O126    O    0.56637   0.69710   0.73230   1.000
    O127    O    0.93363   0.80290   0.73230   1.000
    O128    O    0.84782   0.51410   0.42510   1.000
    O129    O    0.40218   0.76410   0.67510   1.000
    O130    O    0.09782   0.73590   0.67510   1.000
    O131    O    0.65218   0.48590   0.92510   1.000
    O132    O    0.34782   0.51410   0.92510   1.000
    O133    O    0.90218   0.76410   0.17510   1.000
    O134    O    0.59782   0.73590   0.17510   1.000
    O135    O    0.15218   0.98590   0.92510   1.000
    O136    O    0.84782   0.01410   0.92510   1.000
    O137    O    0.40218   0.26410   0.17510   1.000
    O138    O    0.09782   0.23590   0.17510   1.000
    O139    O    0.65218   0.98590   0.42510   1.000
    O140    O    0.34782   0.01410   0.42510   1.000
    O141    O    0.90218   0.26410   0.67510   1.000
    O142    O    0.59782   0.23590   0.67510   1.000
    O143    O    0.99081   0.81020   0.26150   1.000
    O144    O    0.25919   0.06020   0.51150   1.000
    O145    O    0.24081   0.43980   0.51150   1.000
    O146    O    0.50919   0.18980   0.76150   1.000
    O147    O    0.49081   0.81020   0.76150   1.000
    O148    O    0.75919   0.06020   0.01150   1.000
    O149    O    0.74081   0.43980   0.01150   1.000
    O150    O    0.00919   0.68980   0.76150   1.000
    O151    O    0.99081   0.31020   0.76150   1.000
    O152    O    0.25919   0.56020   0.01150   1.000
    O153    O    0.24081   0.93980   0.01150   1.000
    O154    O    0.50919   0.68980   0.26150   1.000
    O155    O    0.49081   0.31020   0.26150   1.000
    O156    O    0.75919   0.56020   0.51150   1.000
    O157    O    0.74081   0.93980   0.51150   1.000
    O158    O    0.92151   0.66100   0.66810   1.000
    O159    O    0.32849   0.91100   0.91810   1.000
    O160    O    0.17151   0.58900   0.91810   1.000
    O161    O    0.57849   0.33900   0.16810   1.000
    O162    O    0.42151   0.66100   0.16810   1.000
    O163    O    0.82849   0.91100   0.41810   1.000
    O164    O    0.67151   0.58900   0.41810   1.000
    O165    O    0.07849   0.83900   0.16810   1.000
    O166    O    0.92151   0.16100   0.16810   1.000
    O167    O    0.32849   0.41100   0.41810   1.000
    O168    O    0.17151   0.08900   0.41810   1.000
    O169    O    0.57849   0.83900   0.66810   1.000
    O170    O    0.42151   0.16100   0.66810   1.000
    O171    O    0.82849   0.41100   0.91810   1.000
    O172    O    0.67151   0.08900   0.91810   1.000
    O173    O    0.15282   0.99390   0.42950   1.000
    O174    O    0.09718   0.24390   0.67950   1.000
    O175    O    0.40282   0.25610   0.67950   1.000
    O176    O    0.34718   0.00610   0.92950   1.000
    O177    O    0.65282   0.99390   0.92950   1.000
    O178    O    0.59718   0.24390   0.17950   1.000
    O179    O    0.90282   0.25610   0.17950   1.000
    O180    O    0.84718   0.50610   0.92950   1.000
    O181    O    0.15282   0.49390   0.92950   1.000
    O182    O    0.09718   0.74390   0.17950   1.000
    O183    O    0.40282   0.75610   0.17950   1.000
    O184    O    0.34718   0.50610   0.42950   1.000
    O185    O    0.65282   0.49390   0.42950   1.000
    O186    O    0.59718   0.74390   0.67950   1.000
    O187    O    0.90282   0.75610   0.67950   1.000
    O188    O    0.81762   0.58030   0.45740   1.000
    C189    C    0.84360   0.53460   0.96570   1.000
    C190    C    0.15640   0.46540   0.96570   1.000
    C191    C    0.09360   0.71540   0.21570   1.000
    C192    C    0.40640   0.78460   0.21570   1.000
    C193    C    0.34360   0.53460   0.46570   1.000
    C194    C    0.65640   0.46540   0.46570   1.000
    C195    C    0.59360   0.71540   0.71570   1.000
    C196    C    0.90640   0.78460   0.71570   1.000
    C197    C    0.11700   0.90390   0.74860   1.000
    C198    C    0.13300   0.15390   0.99860   1.000
    O199    O    0.18238   0.91970   0.95740   1.000
    O200    O    0.81762   0.08030   0.95740   1.000
    O201    O    0.43238   0.33030   0.20740   1.000
    O202    O    0.06762   0.16970   0.20740   1.000
    O203    O    0.68238   0.91970   0.45740   1.000
    O204    O    0.31762   0.08030   0.45740   1.000
    O205    O    0.93238   0.33030   0.70740   1.000
    O206    O    0.56762   0.16970   0.70740   1.000
    O207    O    0.07862   0.84940   0.59370   1.000
    O208    O    0.17138   0.09940   0.84370   1.000
    O209    O    0.32862   0.40060   0.84370   1.000
    O210    O    0.42138   0.15060   0.09370   1.000
    O211    O    0.57862   0.84940   0.09370   1.000
    O212    O    0.67138   0.09940   0.34370   1.000
    O213    O    0.82862   0.40060   0.34370   1.000
    O214    O    0.92138   0.65060   0.09370   1.000
    O215    O    0.07862   0.34940   0.09370   1.000
    O216    O    0.17138   0.59940   0.34370   1.000
    O217    O    0.32862   0.90060   0.34370   1.000
    O218    O    0.42138   0.65060   0.59370   1.000
    O219    O    0.57862   0.34940   0.59370   1.000
    O220    O    0.67138   0.59940   0.84370   1.000
    O221    O    0.82862   0.90060   0.84370   1.000
    O222    O    0.96768   0.63420   0.71000   1.000
    O223    O    0.28232   0.88420   0.96000   1.000
    O224    O    0.21768   0.61580   0.96000   1.000
    O225    O    0.53232   0.36580   0.21000   1.000
    O226    O    0.46768   0.63420   0.21000   1.000
    O227    O    0.78232   0.88420   0.46000   1.000
    O228    O    0.71768   0.61580   0.46000   1.000
    O229    O    0.03232   0.86580   0.21000   1.000
    O230    O    0.96768   0.13420   0.21000   1.000
    O231    O    0.28232   0.38420   0.46000   1.000
    O232    O    0.21768   0.11580   0.46000   1.000
    O233    O    0.53232   0.86580   0.71000   1.000
    O234    O    0.46768   0.13420   0.71000   1.000
    O235    O    0.78232   0.38420   0.96000   1.000
    O236    O    0.71768   0.11580   0.96000   1.000
    O237    O    0.99135   0.81870   0.49660   1.000
    O238    O    0.25865   0.06870   0.74660   1.000
    O239    O    0.24135   0.43130   0.74660   1.000
    O240    O    0.50865   0.18130   0.99660   1.000
    O241    O    0.49135   0.81870   0.99660   1.000
    O242    O    0.75865   0.06870   0.24660   1.000
    O243    O    0.74135   0.43130   0.24660   1.000
    O244    O    0.00865   0.68130   0.99660   1.000
    O245    O    0.99135   0.31870   0.99660   1.000
    O246    O    0.25865   0.56870   0.24660   1.000
    O247    O    0.24135   0.93130   0.24660   1.000
    O248    O    0.50865   0.68130   0.49660   1.000
    O249    O    0.49135   0.31870   0.49660   1.000
    O250    O    0.75865   0.56870   0.74660   1.000
    O251    O    0.74135   0.93130   0.74660   1.000
    H252    H    0.88430   0.38130   0.77100   1.000
    H253    H    0.61570   0.11870   0.77100   1.000
    N254    N    0.92820   0.57150   0.76420   1.000
    N255    N    0.32180   0.82150   0.01420   1.000
    N256    N    0.17820   0.67850   0.01420   1.000
    N257    N    0.57180   0.42850   0.26420   1.000
    N258    N    0.42820   0.57150   0.26420   1.000
    N259    N    0.82180   0.82150   0.51420   1.000
    N260    N    0.67820   0.67850   0.51420   1.000
    N261    N    0.07180   0.92850   0.26420   1.000
    N262    N    0.92820   0.07150   0.26420   1.000
    N263    N    0.32180   0.32150   0.51420   1.000
    N264    N    0.17820   0.17850   0.51420   1.000
    N265    N    0.57180   0.92850   0.76420   1.000
    O266    O    0.06680   0.67280   0.04280   1.000
    O267    O    0.68320   0.42280   0.29280   1.000
    O268    O    0.31680   0.57720   0.29280   1.000
    O269    O    0.93320   0.82720   0.54280   1.000
    O270    O    0.56680   0.67280   0.54280   1.000
    O271    O    0.18320   0.92280   0.29280   1.000
    O272    O    0.81680   0.07720   0.29280   1.000
    O273    O    0.43320   0.32720   0.54280   1.000
    O274    O    0.06680   0.17280   0.54280   1.000
    O275    O    0.68320   0.92280   0.79280   1.000
    O276    O    0.31680   0.07720   0.79280   1.000
    O277    O    0.93320   0.32720   0.04280   1.000
    O278    O    0.56680   0.17280   0.04280   1.000
    O279    O    0.00830   0.72730   0.27480   1.000
    O280    O    0.24170   0.97730   0.52480   1.000
    O281    O    0.25830   0.52270   0.52480   1.000
    O282    O    0.49170   0.27270   0.77480   1.000
    O283    O    0.50830   0.72730   0.77480   1.000
    O284    O    0.74170   0.97730   0.02480   1.000
    O285    O    0.75830   0.52270   0.02480   1.000
    O286    O    0.99170   0.77270   0.77480   1.000
    O287    O    0.00830   0.22730   0.77480   1.000
    O288    O    0.24170   0.47730   0.02480   1.000
    O289    O    0.25830   0.02270   0.02480   1.000
    O290    O    0.49170   0.77270   0.27480   1.000
    O291    O    0.50830   0.22730   0.27480   1.000
    O292    O    0.74170   0.47730   0.52480   1.000
    O293    O    0.75830   0.02270   0.52480   1.000
    O294    O    0.07756   0.83690   0.68750   1.000
    O295    O    0.17244   0.08690   0.93750   1.000
    O296    O    0.32756   0.41310   0.93750   1.000
    O297    O    0.42244   0.16310   0.18750   1.000
    O298    O    0.57756   0.83690   0.18750   1.000
    O299    O    0.67244   0.08690   0.43750   1.000
    O300    O    0.82756   0.41310   0.43750   1.000
    O301    O    0.92244   0.66310   0.18750   1.000
    O302    O    0.07756   0.33690   0.18750   1.000
    O303    O    0.17244   0.58690   0.43750   1.000
    O304    O    0.32756   0.91310   0.43750   1.000
    O305    O    0.42244   0.66310   0.68750   1.000
    O306    O    0.57756   0.33690   0.68750   1.000
    O307    O    0.67244   0.58690   0.93750   1.000
    O308    O    0.82756   0.91310   0.93750   1.000
    O309    O    0.92250   0.67410   0.57010   1.000
    O310    O    0.32750   0.92410   0.82010   1.000
    O311    O    0.17250   0.57590   0.82010   1.000
    O312    O    0.57750   0.32590   0.07010   1.000
    O313    O    0.42250   0.67410   0.07010   1.000
    O314    O    0.82750   0.92410   0.32010   1.000
    O315    O    0.67250   0.57590   0.32010   1.000
    O316    O    0.07750   0.82590   0.07010   1.000
    O317    O    0.92250   0.17410   0.07010   1.000
    O318    O    0.32750   0.42410   0.32010   1.000
    O319    O    0.17250   0.07590   0.32010   1.000
    O320    O    0.57750   0.82590   0.57010   1.000
    O321    O    0.42250   0.17410   0.57010   1.000
    O322    O    0.82750   0.42410   0.82010   1.000
    O323    O    0.67250   0.07590   0.82010   1.000
    O324    O    0.03056   0.85600   0.73090   1.000
    O325    O    0.21944   0.10600   0.98090   1.000
    O326    O    0.28056   0.39400   0.98090   1.000
    O327    O    0.46944   0.14400   0.23090   1.000
    O328    O    0.53056   0.85600   0.23090   1.000
    O329    O    0.71944   0.10600   0.48090   1.000
    O330    O    0.78056   0.39400   0.48090   1.000
    O331    O    0.96944   0.64400   0.23090   1.000
    O332    O    0.03056   0.35600   0.23090   1.000
    O333    O    0.21944   0.60600   0.48090   1.000
    O334    O    0.28056   0.89400   0.48090   1.000
    O335    O    0.46944   0.64400   0.73090   1.000
    O336    O    0.53056   0.35600   0.73090   1.000
    O337    O    0.71944   0.60600   0.98090   1.000
    O338    O    0.78056   0.89400   0.98090   1.000
    C339    C    0.93670   0.63550   0.70090   1.000
    C340    C    0.31330   0.88550   0.95090   1.000
    C341    C    0.18670   0.61450   0.95090   1.000
    C342    C    0.56330   0.36450   0.20090   1.000
    C343    C    0.43670   0.63550   0.20090   1.000
    C344    C    0.81330   0.88550   0.45090   1.000
    C345    C    0.68670   0.61450   0.45090   1.000
    C346    C    0.06330   0.86450   0.20090   1.000
    C347    C    0.93670   0.13550   0.20090   1.000
    C348    C    0.31330   0.38550   0.45090   1.000
    C349    C    0.18670   0.11450   0.45090   1.000
    C350    C    0.56330   0.86450   0.70090   1.000
    C351    C    0.43670   0.13550   0.70090   1.000
    C352    C    0.81330   0.38550   0.95090   1.000
    C353    C    0.68670   0.11450   0.95090   1.000
    O354    O    0.00760   0.73320   0.48470   1.000
    O355    O    0.24240   0.98320   0.73470   1.000
    O356    O    0.25760   0.51680   0.73470   1.000
    O357    O    0.49240   0.26680   0.98470   1.000
    O358    O    0.50760   0.73320   0.98470   1.000
    O359    O    0.74240   0.98320   0.23470   1.000
    O360    O    0.75760   0.51680   0.23470   1.000
    O361    O    0.99240   0.76680   0.98470   1.000
    O362    O    0.00760   0.23320   0.98470   1.000
    O363    O    0.24240   0.48320   0.23470   1.000
    O364    O    0.25760   0.01680   0.23470   1.000
    O365    O    0.49240   0.76680   0.48470   1.000
    O366    O    0.50760   0.23320   0.48470   1.000
    O367    O    0.74240   0.48320   0.73470   1.000
    O368    O    0.75760   0.01680   0.73470   1.000
    C369    C    0.87620   0.57840   0.46680   1.000
    C370    C    0.37380   0.82840   0.71680   1.000
    C371    C    0.12620   0.67160   0.71680   1.000
    C372    C    0.62380   0.42160   0.96680   1.000
    C373    C    0.37620   0.57840   0.96680   1.000
    C374    C    0.87380   0.82840   0.21680   1.000
    C375    C    0.62620   0.67160   0.21680   1.000
    C376    C    0.12380   0.92160   0.96680   1.000
    C377    C    0.87620   0.07840   0.96680   1.000
    C378    C    0.37380   0.32840   0.21680   1.000
    C379    C    0.12620   0.17160   0.21680   1.000
    C380    C    0.62380   0.92160   0.46680   1.000
    C381    C    0.37620   0.07840   0.46680   1.000
    C382    C    0.87380   0.32840   0.71680   1.000
    C383    C    0.62620   0.17160   0.71680   1.000
    C384    C    0.84390   0.55410   0.80290   1.000
    C385    C    0.40610   0.80410   0.05290   1.000
    C386    C    0.09390   0.69590   0.05290   1.000
    C387    C    0.65610   0.44590   0.30290   1.000
    C388    C    0.34390   0.55410   0.30290   1.000
    C389    C    0.90610   0.80410   0.55290   1.000
    C390    C    0.59390   0.69590   0.55290   1.000
    C391    C    0.15610   0.94590   0.30290   1.000
    C392    C    0.84390   0.05410   0.30290   1.000
    C393    C    0.40610   0.30410   0.55290   1.000
    C394    C    0.09390   0.19590   0.55290   1.000
    C395    C    0.65610   0.94590   0.80290   1.000
    C396    C    0.34390   0.05410   0.80290   1.000
    C397    C    0.90610   0.30410   0.05290   1.000
    C398    C    0.59390   0.19590   0.05290   1.000
    C399    C    0.91460   0.60450   0.73350   1.000
    C400    C    0.33540   0.85450   0.98350   1.000
    C401    C    0.16460   0.64550   0.98350   1.000
    C402    C    0.58540   0.39550   0.23350   1.000
    C403    C    0.41460   0.60450   0.23350   1.000
    C404    C    0.83540   0.85450   0.48350   1.000
    C405    C    0.66460   0.64550   0.48350   1.000
    C406    C    0.08540   0.89550   0.23350   1.000
    C407    C    0.91460   0.10450   0.23350   1.000
    C408    C    0.33540   0.35450   0.48350   1.000
    C409    C    0.16460   0.14550   0.48350   1.000
    C410    C    0.58540   0.89550   0.73350   1.000
    C411    C    0.41460   0.10450   0.73350   1.000
    C412    C    0.83540   0.35450   0.98350   1.000
    C413    C    0.66460   0.14550   0.98350   1.000
    C414    C    0.08220   0.89520   0.75050   1.000
    C415    C    0.16780   0.14520   0.00050   1.000
    C416    C    0.33220   0.35480   0.00050   1.000
    C417    C    0.41780   0.10480   0.25050   1.000
    C418    C    0.58220   0.89520   0.25050   1.000
    C419    C    0.66780   0.14520   0.50050   1.000
    C420    C    0.83220   0.35480   0.50050   1.000
    C421    C    0.91780   0.60480   0.25050   1.000
    C422    C    0.08220   0.39520   0.25050   1.000
    C423    C    0.16780   0.64520   0.50050   1.000
    C424    C    0.33220   0.85480   0.50050   1.000
    C425    C    0.41780   0.60480   0.75050   1.000
    C426    C    0.58220   0.39520   0.75050   1.000
    C427    C    0.66780   0.64520   0.00050   1.000
    C428    C    0.83220   0.85480   0.00050   1.000
    O429    O    0.96898   0.66010   0.52340   1.000
    O430    O    0.28102   0.91010   0.77340   1.000
    O431    O    0.21898   0.58990   0.77340   1.000
    O432    O    0.53102   0.33990   0.02340   1.000
    O433    O    0.46898   0.66010   0.02340   1.000
    O434    O    0.78102   0.91010   0.27340   1.000
    O435    O    0.71898   0.58990   0.27340   1.000
    O436    O    0.03102   0.83990   0.02340   1.000
    O437    O    0.96898   0.16010   0.02340   1.000
    O438    O    0.28102   0.41010   0.27340   1.000
    O439    O    0.21898   0.08990   0.27340   1.000
    O440    O    0.53102   0.83990   0.52340   1.000
    O441    O    0.46898   0.16010   0.52340   1.000
    O442    O    0.78102   0.41010   0.77340   1.000
    O443    O    0.71898   0.08990   0.77340   1.000
    C444    C    0.15470   0.96400   0.80120   1.000
    C445    C    0.09530   0.21400   0.05120   1.000
    C446    C    0.40470   0.28600   0.05120   1.000
    C447    C    0.34530   0.03600   0.30120   1.000
    C448    C    0.65470   0.96400   0.30120   1.000
    C449    C    0.59530   0.21400   0.55120   1.000
    C450    C    0.90470   0.28600   0.55120   1.000
    C451    C    0.84530   0.53600   0.30120   1.000
    C452    C    0.15470   0.46400   0.30120   1.000
    C453    C    0.09530   0.71400   0.55120   1.000
    C454    C    0.40470   0.78600   0.55120   1.000
    C455    C    0.34530   0.53600   0.80120   1.000
    C456    C    0.65470   0.46400   0.80120   1.000
    C457    C    0.59530   0.71400   0.05120   1.000
    C458    C    0.90470   0.78600   0.05120   1.000
    C459    C    0.06310   0.87880   0.56510   1.000
    C460    C    0.18690   0.12880   0.81510   1.000
    C461    C    0.31310   0.37120   0.81510   1.000
    C462    C    0.43690   0.12120   0.06510   1.000
    C463    C    0.56310   0.87880   0.06510   1.000
    C464    C    0.68690   0.12880   0.31510   1.000
    C465    C    0.81310   0.37120   0.31510   1.000
    C466    C    0.93690   0.62120   0.06510   1.000
    C467    C    0.06310   0.37880   0.06510   1.000
    C468    C    0.18690   0.62880   0.31510   1.000
    C469    C    0.31310   0.87120   0.31510   1.000
    C470    C    0.43690   0.62120   0.56510   1.000
    C471    C    0.56310   0.37880   0.56510   1.000
    C472    C    0.68690   0.62880   0.81510   1.000
    C473    C    0.81310   0.87120   0.81510   1.000
    C474    C    0.06170   0.85920   0.72040   1.000
    C475    C    0.18830   0.10920   0.97040   1.000
    C476    C    0.31170   0.39080   0.97040   1.000
    C477    C    0.43830   0.14080   0.22040   1.000
    C478    C    0.56170   0.85920   0.22040   1.000
    C479    C    0.68830   0.10920   0.47040   1.000
    C480    C    0.81170   0.39080   0.47040   1.000
    C481    C    0.93830   0.64080   0.22040   1.000
    C482    C    0.06170   0.35920   0.22040   1.000
    C483    C    0.18830   0.60920   0.47040   1.000
    C484    C    0.31170   0.89080   0.47040   1.000
    C485    C    0.43830   0.64080   0.72040   1.000
    C486    C    0.56170   0.35920   0.72040   1.000
    C487    C    0.68830   0.60920   0.97040   1.000
    C488    C    0.81170   0.89080   0.97040   1.000
    C489    C    0.84470   0.55540   0.44850   1.000
    C490    C    0.40530   0.80540   0.69850   1.000
    C491    C    0.09470   0.69460   0.69850   1.000
    C492    C    0.65530   0.44460   0.94850   1.000
    C493    C    0.34470   0.55540   0.94850   1.000
    C494    C    0.90530   0.80540   0.19850   1.000
    C495    C    0.59470   0.69460   0.19850   1.000
    C496    C    0.15530   0.94460   0.94850   1.000
    C497    C    0.84470   0.05540   0.94850   1.000
    C498    C    0.40530   0.30540   0.19850   1.000
    C499    C    0.09470   0.19460   0.19850   1.000
    C500    C    0.65530   0.94460   0.44850   1.000
    C501    C    0.34470   0.05540   0.44850   1.000
    C502    C    0.90530   0.30540   0.69850   1.000
    C503    C    0.59470   0.19460   0.69850   1.000
    C504    C    0.15640   0.96540   0.46570   1.000
    C505    C    0.09360   0.21540   0.71570   1.000
    C506    C    0.40640   0.28460   0.71570   1.000
    C507    C    0.34360   0.03460   0.96570   1.000
    C508    C    0.65640   0.96540   0.96570   1.000
    C509    C    0.59360   0.21540   0.21570   1.000
    C510    C    0.90640   0.28460   0.21570   1.000
    C511    C    0.36700   0.34610   0.99860   1.000
    C512    C    0.38300   0.09610   0.24860   1.000
    C513    C    0.61700   0.90390   0.24860   1.000
    C514    C    0.63300   0.15390   0.49860   1.000
    C515    C    0.86700   0.34610   0.49860   1.000
    C516    C    0.88300   0.59610   0.24860   1.000
    C517    C    0.11700   0.40390   0.24860   1.000
    C518    C    0.13300   0.65390   0.49860   1.000
    C519    C    0.36700   0.84610   0.49860   1.000
    C520    C    0.38300   0.59610   0.74860   1.000
    C521    C    0.61700   0.40390   0.74860   1.000
    C522    C    0.63300   0.65390   0.99860   1.000
    C523    C    0.86700   0.84610   0.99860   1.000
    H524    H    0.13330   0.88840   0.72790   1.000
    H525    H    0.11670   0.13840   0.97790   1.000
    H526    H    0.38330   0.36160   0.97790   1.000
    H527    H    0.36670   0.11160   0.22790   1.000
    H528    H    0.63330   0.88840   0.22790   1.000
    H529    H    0.61670   0.13840   0.47790   1.000
    H530    H    0.88330   0.36160   0.47790   1.000
    H531    H    0.86670   0.61160   0.22790   1.000
    H532    H    0.13330   0.38840   0.22790   1.000
    H533    H    0.11670   0.63840   0.47790   1.000
    H534    H    0.38330   0.86160   0.47790   1.000
    H535    H    0.36670   0.61160   0.72790   1.000
    H536    H    0.63330   0.38840   0.72790   1.000
    H537    H    0.61670   0.63840   0.97790   1.000
    H538    H    0.88330   0.86160   0.97790   1.000
    C539    C    0.99810   0.78640   0.41900   1.000
    C540    C    0.25190   0.03640   0.66900   1.000
    C541    C    0.24810   0.46360   0.66900   1.000
    C542    C    0.50190   0.21360   0.91900   1.000
    C543    C    0.49810   0.78640   0.91900   1.000
    C544    C    0.75190   0.03640   0.16900   1.000
    C545    C    0.74810   0.46360   0.16900   1.000
    C546    C    0.00190   0.71360   0.91900   1.000
    C547    C    0.99810   0.28640   0.91900   1.000
    C548    C    0.25190   0.53640   0.16900   1.000
    C549    C    0.24810   0.96360   0.16900   1.000
    C550    C    0.50190   0.71360   0.41900   1.000
    C551    C    0.49810   0.28640   0.41900   1.000
    C552    C    0.75190   0.53640   0.66900   1.000
    C553    C    0.74810   0.96360   0.66900   1.000
    N554    N    0.09414   0.96810   0.47350   1.000
    N555    N    0.15586   0.21810   0.72350   1.000
    N556    N    0.34414   0.28190   0.72350   1.000
    N557    N    0.40586   0.03190   0.97350   1.000
    N558    N    0.59414   0.96810   0.97350   1.000
    N559    N    0.65586   0.21810   0.22350   1.000
    N560    N    0.84414   0.28190   0.22350   1.000
    N561    N    0.90586   0.53190   0.97350   1.000
    N562    N    0.09414   0.46810   0.97350   1.000
    N563    N    0.15586   0.71810   0.22350   1.000
    N564    N    0.34414   0.78190   0.22350   1.000
    N565    N    0.40586   0.53190   0.47350   1.000
    N566    N    0.59414   0.46810   0.47350   1.000
    N567    N    0.65586   0.71810   0.72350   1.000
    N568    N    0.84414   0.78190   0.72350   1.000
    N569    N    0.06841   0.94440   0.50170   1.000
    N570    N    0.18159   0.19440   0.75170   1.000
    N571    N    0.31841   0.30560   0.75170   1.000
    N572    N    0.43159   0.05560   0.00170   1.000
    N573    N    0.56841   0.94440   0.00170   1.000
    N574    N    0.68159   0.19440   0.25170   1.000
    N575    N    0.81841   0.30560   0.25170   1.000
    N576    N    0.93159   0.55560   0.00170   1.000
    N577    N    0.06841   0.44440   0.00170   1.000
    N578    N    0.18159   0.69440   0.25170   1.000
    N579    N    0.31841   0.80560   0.25170   1.000
    N580    N    0.43159   0.55560   0.50170   1.000
    N581    N    0.56841   0.44440   0.50170   1.000
    N582    N    0.68159   0.69440   0.75170   1.000
    N583    N    0.81841   0.80560   0.75170   1.000
    C584    C    0.08464   0.91170   0.53550   1.000
    C585    C    0.16536   0.16170   0.78550   1.000
    C586    C    0.33464   0.33830   0.78550   1.000
    C587    C    0.41536   0.08830   0.03550   1.000
    C588    C    0.58464   0.91170   0.03550   1.000
    C589    C    0.66536   0.16170   0.28550   1.000
    C590    C    0.83464   0.33830   0.28550   1.000
    C591    C    0.91536   0.58830   0.03550   1.000
    C592    C    0.08464   0.41170   0.03550   1.000
    C593    C    0.16536   0.66170   0.28550   1.000
    C594    C    0.33464   0.83830   0.28550   1.000
    C595    C    0.41536   0.58830   0.53550   1.000
    C596    C    0.58464   0.41170   0.53550   1.000
    C597    C    0.66536   0.66170   0.78550   1.000
    C598    C    0.83464   0.83830   0.78550   1.000
    C599    C    0.12039   0.91520   0.52810   1.000
    C600    C    0.12961   0.16520   0.77810   1.000
    C601    C    0.37039   0.33480   0.77810   1.000
    C602    C    0.37961   0.08480   0.02810   1.000
    C603    C    0.62039   0.91520   0.02810   1.000
    C604    C    0.62961   0.16520   0.27810   1.000
    C605    C    0.87039   0.33480   0.27810   1.000
    C606    C    0.87961   0.58480   0.02810   1.000
    C607    C    0.12039   0.41520   0.02810   1.000
    C608    C    0.12961   0.66520   0.27810   1.000
    C609    C    0.37039   0.83480   0.27810   1.000
    C610    C    0.37961   0.58480   0.52810   1.000
    C611    C    0.62039   0.41520   0.52810   1.000
    C612    C    0.62961   0.66520   0.77810   1.000
    C613    C    0.87039   0.83480   0.77810   1.000
    H614    H    0.13740   0.89730   0.54580   1.000
    H615    H    0.11260   0.14730   0.79580   1.000
    H616    H    0.38740   0.35270   0.79580   1.000
    H617    H    0.36260   0.10270   0.04580   1.000
    H618    H    0.63740   0.89730   0.04580   1.000
    H619    H    0.61260   0.14730   0.29580   1.000
    H620    H    0.88740   0.35270   0.29580   1.000
    H621    H    0.86260   0.60270   0.04580   1.000
    H622    H    0.13740   0.39730   0.04580   1.000
    H623    H    0.11260   0.64730   0.29580   1.000
    H624    H    0.38740   0.85270   0.29580   1.000
    H625    H    0.36260   0.60270   0.54580   1.000
    H626    H    0.63740   0.39730   0.54580   1.000
    H627    H    0.61260   0.64730   0.79580   1.000
    H628    H    0.88740   0.85270   0.79580   1.000
    C629    C    0.12626   0.95000   0.48980   1.000
    C630    C    0.12374   0.20000   0.73980   1.000
    C631    C    0.37626   0.30000   0.73980   1.000
    C632    C    0.37374   0.05000   0.98980   1.000
    C633    C    0.62626   0.95000   0.98980   1.000
    C634    C    0.62374   0.20000   0.23980   1.000
    C635    C    0.87626   0.30000   0.23980   1.000
    C636    C    0.87374   0.55000   0.98980   1.000
    C637    C    0.12626   0.45000   0.98980   1.000
    C638    C    0.12374   0.70000   0.23980   1.000
    C639    C    0.37626   0.80000   0.23980   1.000
    C640    C    0.37374   0.55000   0.48980   1.000
    C641    C    0.62626   0.45000   0.48980   1.000
    C642    C    0.62374   0.70000   0.73980   1.000
    C643    C    0.87626   0.80000   0.73980   1.000
    N644    N    0.09280   0.95190   0.80460   1.000
    N645    N    0.15720   0.20190   0.05460   1.000
    N646    N    0.34280   0.29810   0.05460   1.000
    N647    N    0.40720   0.04810   0.30460   1.000
    N648    N    0.59280   0.95190   0.30460   1.000
    N649    N    0.65720   0.20190   0.55460   1.000
    N650    N    0.84280   0.29810   0.55460   1.000
    N651    N    0.90720   0.54810   0.30460   1.000
    N652    N    0.09280   0.45190   0.30460   1.000
    N653    N    0.15720   0.70190   0.55460   1.000
    N654    N    0.34280   0.79810   0.55460   1.000
    N655    N    0.40720   0.54810   0.80460   1.000
    N656    N    0.59280   0.45190   0.80460   1.000
    N657    N    0.65720   0.70190   0.05460   1.000
    N658    N    0.84280   0.79810   0.05460   1.000
    C659    C    0.99880   0.77880   0.47170   1.000
    C660    C    0.25120   0.02880   0.72170   1.000
    C661    C    0.24880   0.47120   0.72170   1.000
    C662    C    0.50120   0.22120   0.97170   1.000
    C663    C    0.49880   0.77880   0.97170   1.000
    C664    C    0.75120   0.02880   0.22170   1.000
    C665    C    0.74880   0.47120   0.22170   1.000
    C666    C    0.00120   0.72120   0.97170   1.000
    C667    C    0.99880   0.27880   0.97170   1.000
    C668    C    0.25120   0.52880   0.22170   1.000
    C669    C    0.24880   0.97120   0.22170   1.000
    C670    C    0.50120   0.72120   0.47170   1.000
    C671    C    0.49880   0.27880   0.47170   1.000
    C672    C    0.75120   0.52880   0.72170   1.000
    C673    C    0.74880   0.97120   0.72170   1.000
    C674    C    0.87610   0.56950   0.77770   1.000
    C675    C    0.37390   0.81950   0.02770   1.000
    C676    C    0.12610   0.68050   0.02770   1.000
    C677    C    0.62390   0.43050   0.27770   1.000
    C678    C    0.37610   0.56950   0.27770   1.000
    C679    C    0.87390   0.81950   0.52770   1.000
    C680    C    0.62610   0.68050   0.52770   1.000
    C681    C    0.12390   0.93050   0.27770   1.000
    C682    C    0.87610   0.06950   0.27770   1.000
    C683    C    0.37390   0.31950   0.52770   1.000
    C684    C    0.12610   0.18050   0.52770   1.000
    C685    C    0.62390   0.93050   0.77770   1.000
    C686    C    0.37610   0.06950   0.77770   1.000
    C687    C    0.87390   0.31950   0.02770   1.000
    C688    C    0.62610   0.18050   0.02770   1.000
    N689    N    0.90510   0.54930   0.79150   1.000
    N690    N    0.34490   0.79930   0.04150   1.000
    N691    N    0.15510   0.70070   0.04150   1.000
    N692    N    0.59490   0.45070   0.29150   1.000
    N693    N    0.40510   0.54930   0.29150   1.000
    N694    N    0.84490   0.79930   0.54150   1.000
    N695    N    0.65510   0.70070   0.54150   1.000
    N696    N    0.09490   0.95070   0.29150   1.000
    N697    N    0.90510   0.04930   0.29150   1.000
    N698    N    0.34490   0.29930   0.54150   1.000
    N699    N    0.15510   0.20070   0.54150   1.000
    N700    N    0.59490   0.95070   0.79150   1.000
    N701    N    0.40510   0.04930   0.79150   1.000
    N702    N    0.84490   0.29930   0.04150   1.000
    N703    N    0.65510   0.20070   0.04150   1.000
    C704    C    0.88220   0.61430   0.50180   1.000
    C705    C    0.36780   0.86430   0.75180   1.000
    C706    C    0.13220   0.63570   0.75180   1.000
    C707    C    0.61780   0.38570   0.00180   1.000
    C708    C    0.38220   0.61430   0.00180   1.000
    C709    C    0.86780   0.86430   0.25180   1.000
    C710    C    0.63220   0.63570   0.25180   1.000
    C711    C    0.11780   0.88570   0.00180   1.000
    C712    C    0.88220   0.11430   0.00180   1.000
    C713    C    0.36780   0.36430   0.25180   1.000
    C714    C    0.13220   0.13570   0.25180   1.000
    C715    C    0.61780   0.88570   0.50180   1.000
    C716    C    0.38220   0.11430   0.50180   1.000
    C717    C    0.86780   0.36430   0.75180   1.000
    C718    C    0.63220   0.13570   0.75180   1.000
    H719    H    0.86570   0.63130   0.52100   1.000
    H720    H    0.38430   0.88130   0.77100   1.000
    H721    H    0.11570   0.61870   0.77100   1.000
    H722    H    0.63430   0.36870   0.02100   1.000
    H723    H    0.36570   0.63130   0.02100   1.000
    H724    H    0.88430   0.88130   0.27100   1.000
    H725    H    0.61570   0.61870   0.27100   1.000
    H726    H    0.13430   0.86870   0.02100   1.000
    H727    H    0.86570   0.13130   0.02100   1.000
    H728    H    0.38430   0.38130   0.27100   1.000
    H729    H    0.11570   0.11870   0.27100   1.000
    H730    H    0.63430   0.86870   0.52100   1.000
    H731    H    0.36570   0.13130   0.52100   1.000
    N732    N    0.42820   0.07150   0.76420   1.000
    N733    N    0.82180   0.32150   0.01420   1.000
    N734    N    0.67820   0.17850   0.01420   1.000
    N735    N    0.90750   0.56300   0.44950   1.000
    N736    N    0.34250   0.81300   0.69950   1.000
    N737    N    0.15750   0.68700   0.69950   1.000
    N738    N    0.59250   0.43700   0.94950   1.000
    N739    N    0.40750   0.56300   0.94950   1.000
    N740    N    0.84250   0.81300   0.19950   1.000
    N741    N    0.65750   0.68700   0.19950   1.000
    N742    N    0.09250   0.93700   0.94950   1.000
    N743    N    0.90750   0.06300   0.94950   1.000
    N744    N    0.34250   0.31300   0.19950   1.000
    N745    N    0.15750   0.18700   0.19950   1.000
    N746    N    0.59250   0.93700   0.44950   1.000
    N747    N    0.40750   0.06300   0.44950   1.000
    N748    N    0.84250   0.31300   0.69950   1.000
    N749    N    0.65750   0.18700   0.69950   1.000
    C750    C    0.93800   0.65450   0.53430   1.000
    C751    C    0.31200   0.90450   0.78430   1.000
    C752    C    0.18800   0.59550   0.78430   1.000
    C753    C    0.56200   0.34550   0.03430   1.000
    C754    C    0.43800   0.65450   0.03430   1.000
    C755    C    0.81200   0.90450   0.28430   1.000
    C756    C    0.68800   0.59550   0.28430   1.000
    C757    C    0.06200   0.84550   0.03430   1.000
    C758    C    0.93800   0.15450   0.03430   1.000
    C759    C    0.31200   0.40450   0.28430   1.000
    C760    C    0.18800   0.09550   0.28430   1.000
    C761    C    0.56200   0.84550   0.53430   1.000
    C762    C    0.43800   0.15450   0.53430   1.000
    C763    C    0.81200   0.40450   0.78430   1.000
    C764    C    0.68800   0.09550   0.78430   1.000
    O765    O    0.03156   0.88120   0.55800   1.000
    O766    O    0.21844   0.13120   0.80800   1.000
    O767    O    0.28156   0.36880   0.80800   1.000
    O768    O    0.46844   0.11880   0.05800   1.000
    O769    O    0.53156   0.88120   0.05800   1.000
    O770    O    0.71844   0.13120   0.30800   1.000
    O771    O    0.78156   0.36880   0.30800   1.000
    O772    O    0.96844   0.61880   0.05800   1.000
    O773    O    0.03156   0.38120   0.05800   1.000
    O774    O    0.21844   0.63120   0.30800   1.000
    O775    O    0.28156   0.86880   0.30800   1.000
    O776    O    0.46844   0.61880   0.55800   1.000
    O777    O    0.53156   0.38120   0.55800   1.000
    O778    O    0.71844   0.63120   0.80800   1.000
    O779    O    0.78156   0.86880   0.80800   1.000
    N780    N    0.93260   0.58870   0.47150   1.000
    N781    N    0.31740   0.83870   0.72150   1.000
    N782    N    0.18260   0.66130   0.72150   1.000
    N783    N    0.56740   0.41130   0.97150   1.000
    N784    N    0.43260   0.58870   0.97150   1.000
    N785    N    0.81740   0.83870   0.22150   1.000
    N786    N    0.68260   0.66130   0.22150   1.000
    N787    N    0.06740   0.91130   0.97150   1.000
    N788    N    0.93260   0.08870   0.97150   1.000
    N789    N    0.31740   0.33870   0.22150   1.000
    N790    N    0.18260   0.16130   0.22150   1.000
    N791    N    0.56740   0.91130   0.47150   1.000
    N792    N    0.43260   0.08870   0.47150   1.000
    N793    N    0.81740   0.33870   0.72150   1.000
    N794    N    0.68260   0.16130   0.72150   1.000
    C795    C    0.00390   0.75370   0.38030   1.000
    C796    C    0.24610   0.00370   0.63030   1.000
    C797    C    0.25390   0.49630   0.63030   1.000
    C798    C    0.49610   0.24630   0.88030   1.000
    C799    C    0.50390   0.75370   0.88030   1.000
    C800    C    0.74610   0.00370   0.13030   1.000
    C801    C    0.75390   0.49630   0.13030   1.000
    C802    C    0.99610   0.74630   0.88030   1.000
    C803    C    0.00390   0.25370   0.88030   1.000
    C804    C    0.24610   0.50370   0.13030   1.000
    C805    C    0.25390   0.99630   0.13030   1.000
    C806    C    0.49610   0.74630   0.38030   1.000
    C807    C    0.50390   0.25370   0.38030   1.000
    C808    C    0.74610   0.50370   0.63030   1.000
    C809    C    0.75390   0.99630   0.63030   1.000
    H810    H    0.01010   0.71850   0.38150   1.000
    H811    H    0.23990   0.96850   0.63150   1.000
    H812    H    0.26010   0.53150   0.63150   1.000
    H813    H    0.48990   0.28150   0.88150   1.000
    H814    H    0.51010   0.71850   0.88150   1.000
    H815    H    0.73990   0.96850   0.13150   1.000
    H816    H    0.76010   0.53150   0.13150   1.000
    H817    H    0.98990   0.78150   0.88150   1.000
    H818    H    0.01010   0.21850   0.88150   1.000
    H819    H    0.23990   0.46850   0.13150   1.000
    H820    H    0.26010   0.03150   0.13150   1.000
    H821    H    0.48990   0.78150   0.38150   1.000
    H822    H    0.51010   0.21850   0.38150   1.000
    H823    H    0.73990   0.46850   0.63150   1.000
    H824    H    0.76010   0.03150   0.63150   1.000
    C825    C    0.88060   0.60450   0.74070   1.000
    C826    C    0.36940   0.85450   0.99070   1.000
    C827    C    0.13060   0.64550   0.99070   1.000
    C828    C    0.61940   0.39550   0.24070   1.000
    C829    C    0.38060   0.60450   0.24070   1.000
    C830    C    0.86940   0.85450   0.49070   1.000
    C831    C    0.63060   0.64550   0.49070   1.000
    C832    C    0.11940   0.89550   0.24070   1.000
    C833    C    0.88060   0.10450   0.24070   1.000
    C834    C    0.36940   0.35450   0.49070   1.000
    C835    C    0.13060   0.14550   0.49070   1.000
    C836    C    0.61940   0.89550   0.74070   1.000
    C837    C    0.38060   0.10450   0.74070   1.000
    C838    C    0.86940   0.35450   0.99070   1.000
    C839    C    0.63060   0.14550   0.99070   1.000
    H840    H    0.86370   0.62400   0.72440   1.000
    H841    H    0.38630   0.87400   0.97440   1.000
    H842    H    0.11370   0.62600   0.97440   1.000
    H843    H    0.63630   0.37600   0.22440   1.000
    H844    H    0.36370   0.62400   0.22440   1.000
    H845    H    0.88630   0.87400   0.47440   1.000
    H846    H    0.61370   0.62600   0.47440   1.000
    H847    H    0.13630   0.87600   0.22440   1.000
    H848    H    0.86370   0.12400   0.22440   1.000
    H849    H    0.38630   0.37400   0.47440   1.000
    H850    H    0.11370   0.12600   0.47440   1.000
    H851    H    0.63630   0.87600   0.72440   1.000
    H852    H    0.36370   0.12400   0.72440   1.000
    H853    H    0.88630   0.37400   0.97440   1.000
    H854    H    0.61370   0.12600   0.97440   1.000
    N855    N    0.99040   0.83450   0.40180   1.000
    N856    N    0.25960   0.08450   0.65180   1.000
    N857    N    0.24040   0.41550   0.65180   1.000
    N858    N    0.50960   0.16550   0.90180   1.000
    N859    N    0.49040   0.83450   0.90180   1.000
    N860    N    0.75960   0.08450   0.15180   1.000
    N861    N    0.74040   0.41550   0.15180   1.000
    N862    N    0.00960   0.66550   0.90180   1.000
    N863    N    0.99040   0.33450   0.90180   1.000
    N864    N    0.25960   0.58450   0.15180   1.000
    N865    N    0.24040   0.91550   0.15180   1.000
    N866    N    0.50960   0.66550   0.40180   1.000
    N867    N    0.49040   0.33450   0.40180   1.000
    N868    N    0.75960   0.58450   0.65180   1.000
    N869    N    0.74040   0.91550   0.65180   1.000
    N870    N    0.99080   0.83140   0.35400   1.000
    N871    N    0.25920   0.08140   0.60400   1.000
    N872    N    0.24080   0.41860   0.60400   1.000
    N873    N    0.50920   0.16860   0.85400   1.000
    N874    N    0.49080   0.83140   0.85400   1.000
    N875    N    0.75920   0.08140   0.10400   1.000
    N876    N    0.74080   0.41860   0.10400   1.000
    N877    N    0.00920   0.66860   0.85400   1.000
    N878    N    0.99080   0.33140   0.85400   1.000
    N879    N    0.25920   0.58140   0.10400   1.000
    N880    N    0.24080   0.91860   0.10400   1.000
    N881    N    0.50920   0.66860   0.35400   1.000
    N882    N    0.49080   0.33140   0.35400   1.000
    N883    N    0.75920   0.58140   0.60400   1.000
    N884    N    0.74080   0.91860   0.60400   1.000
    C885    C    0.83290   0.87090   0.25350   1.000
    N886    N    0.06850   0.92460   0.78400   1.000
    N887    N    0.18150   0.17460   0.03400   1.000
    N888    N    0.31850   0.32540   0.03400   1.000
    N889    N    0.43150   0.07540   0.28400   1.000
    N890    N    0.56850   0.92460   0.28400   1.000
    N891    N    0.68150   0.17460   0.53400   1.000
    N892    N    0.81850   0.32540   0.53400   1.000
    N893    N    0.93150   0.57540   0.28400   1.000
    N894    N    0.06850   0.42460   0.28400   1.000
    N895    N    0.18150   0.67460   0.53400   1.000
    N896    N    0.31850   0.82540   0.53400   1.000
    N897    N    0.43150   0.57540   0.78400   1.000
    N898    N    0.56850   0.42460   0.78400   1.000
    N899    N    0.68150   0.67460   0.03400   1.000
    N900    N    0.81850   0.82540   0.03400   1.000
    C901    C    0.91710   0.62090   0.50350   1.000
    C902    C    0.33290   0.87090   0.75350   1.000
    C903    C    0.16710   0.62910   0.75350   1.000
    C904    C    0.58290   0.37910   0.00350   1.000
    C905    C    0.41710   0.62090   0.00350   1.000
    C906    C    0.66710   0.62910   0.25350   1.000
    C907    C    0.08290   0.87910   0.00350   1.000
    C908    C    0.91710   0.12090   0.00350   1.000
    C909    C    0.33290   0.37090   0.25350   1.000
    C910    C    0.16710   0.12910   0.25350   1.000
    C911    C    0.58290   0.87910   0.50350   1.000
    C912    C    0.41710   0.12090   0.50350   1.000
    C913    C    0.83290   0.37090   0.75350   1.000
    C914    C    0.66710   0.12910   0.75350   1.000
    C915    C    0.99890   0.78280   0.34060   1.000
    C916    C    0.25110   0.03280   0.59060   1.000
    C917    C    0.24890   0.46720   0.59060   1.000
    C918    C    0.50110   0.21720   0.84060   1.000
    C919    C    0.49890   0.78280   0.84060   1.000
    C920    C    0.75110   0.03280   0.09060   1.000
    C921    C    0.74890   0.46720   0.09060   1.000
    C922    C    0.00110   0.71720   0.84060   1.000
    C923    C    0.99890   0.28280   0.84060   1.000
    C924    C    0.25110   0.53280   0.09060   1.000
    C925    C    0.24890   0.96720   0.09060   1.000
    C926    C    0.50110   0.71720   0.34060   1.000
    C927    C    0.49890   0.28280   0.34060   1.000
    C928    C    0.75110   0.53280   0.59060   1.000
    C929    C    0.74890   0.96720   0.59060   1.000
    C930    C    0.00010   0.77260   0.28830   1.000
    C931    C    0.24990   0.02260   0.53830   1.000
    C932    C    0.25010   0.47740   0.53830   1.000
    C933    C    0.49990   0.22740   0.78830   1.000
    C934    C    0.50010   0.77260   0.78830   1.000
    C935    C    0.74990   0.02260   0.03830   1.000
    C936    C    0.75010   0.47740   0.03830   1.000
    C937    C    0.99990   0.72740   0.78830   1.000
    C938    C    0.00010   0.27260   0.78830   1.000
    C939    C    0.24990   0.52260   0.03830   1.000
    C940    C    0.25010   0.97740   0.03830   1.000
    C941    C    0.49990   0.72740   0.28830   1.000
    C942    C    0.50010   0.27260   0.28830   1.000
    C943    C    0.74990   0.52260   0.53830   1.000
    C944    C    0.75010   0.97740   0.53830   1.000
    C945    C    0.12230   0.93980   0.78320   1.000
    C946    C    0.12770   0.18980   0.03320   1.000
    C947    C    0.37230   0.31020   0.03320   1.000
    C948    C    0.37770   0.06020   0.28320   1.000
    C949    C    0.62230   0.93980   0.28320   1.000
    C950    C    0.62770   0.18980   0.53320   1.000
    C951    C    0.87230   0.31020   0.53320   1.000
    C952    C    0.87770   0.56020   0.28320   1.000
    C953    C    0.12230   0.43980   0.28320   1.000
    C954    C    0.12770   0.68980   0.53320   1.000
    C955    C    0.37230   0.81020   0.53320   1.000
    C956    C    0.37770   0.56020   0.78320   1.000
    C957    C    0.62230   0.43980   0.78320   1.000
    C958    C    0.62770   0.68980   0.03320   1.000
    C959    C    0.87230   0.81020   0.03320   1.000
loop_
    _geom_bond_atom_site_label_1
    _geom_bond_atom_site_label_2
    _geom_bond_distance
    _geom_bond_site_symmetry_2
    _ccdc_geom_bond_type
    C415   N887      1.32159      .   S
    C415   C475      1.49278  1_554   S
    C415   C198      1.38458  1_554   S
    C416   N888      1.32159      .   S
    C416   C476      1.49278  1_554   S
    C416   C511      1.38458  1_554   S
    C427   N899      1.32159      .   S
    C427   C487      1.49278  1_554   S
    C427   C522      1.38458  1_554   S
    C428   N900      1.32159      .   S
    C428   C488      1.49278  1_554   S
    C428   C523      1.38458  1_554   S
    N572   C587      1.42040      .   S
    N572   N557      1.42025  1_554   S
    N573   C588      1.42040      .   S
    N573   N558      1.42025  1_554   S
    N576   C591      1.42040      .   S
    N576   N561      1.42025  1_554   S
    N577   C592      1.42040      .   S
    N577   N562      1.42025  1_554   S
    C711   C907      1.38039      .   S
    C711   H726      0.94928      .   S
    C711   C376      1.37131  1_554   S
    C708   C905      1.38039      .   S
    C708   H723      0.94928      .   S
    C708   C373      1.37131  1_554   S
    C707   C904      1.38039      .   S
    C707   H722      0.94928      .   S
    C707   C372      1.37131  1_554   S
    C712   C908      1.38039      .   S
    C712   H727      0.94928      .   S
    C712   C377      1.37131  1_554   S
    C904   C753      1.47443      .   S
    C904   N783      1.36668  1_554   S
    C905   C754      1.47443      .   S
    C905   N784      1.36668  1_554   S
    C907   C757      1.47443      .   S
    C907   N787      1.36668  1_554   S
    C908   C758      1.47443      .   S
    C908   N788      1.36668  1_554   S
    O148   C935      1.28388      .   S
    O149   C936      1.28388      .   S
    O152   C939      1.28388      .   S
    O153   C940      1.28388      .   S
    N255   N690      1.31686      .   S
    N255   C400      1.32464  1_554   S
    N256   N691      1.31686      .   S
    N256   C401      1.32464  1_554   S
    N733   N702      1.31686      .   S
    N733   C412      1.32464  1_554   S
    N734   N703      1.31686      .   S
    N734   C413      1.32464  1_554   S
    O437   C758      1.26099      .   S
    O436   C757      1.26099      .   S
    O433   C754      1.26099      .   S
    O432   C753      1.26099      .   S
    O289   C940      1.27840  1_545   S
    O288   C939      1.27840      .   S
    O285   C936      1.27840      .   S
    O284   C935      1.27840  1_565   S
    C675   N690      1.31076      .   S
    C675   C385      1.49981      .   S
    C675   C826      1.38746  1_554   S
    C676   N691      1.31076      .   S
    C676   C386      1.49981      .   S
    C676   C827      1.38746  1_554   S
    C687   N702      1.31076      .   S
    C687   C397      1.49981      .   S
    C687   C838      1.38746  1_554   S
    C688   N703      1.31076      .   S
    C688   C398      1.49981      .   S
    C688   C839      1.38746  1_554   S
    C602   C587      1.42021      .   S
    C602   H617      0.95166      .   S
    C602   C632      1.41901  1_554   S
    C603   C588      1.42021      .   S
    C603   H618      0.95166      .   S
    C603   C633      1.41901  1_554   S
    C606   C591      1.42021      .   S
    C606   H621      0.95166      .   S
    C606   C636      1.41901  1_554   S
    C607   C592      1.42021      .   S
    C607   H622      0.95166      .   S
    C607   C637      1.41901  1_554   S
    C959   C458      1.50444      .   S
    C959   N658      1.33941      .   S
    C959   C523      1.35892  1_554   S
    C958   C457      1.50444      .   S
    C958   N657      1.33941      .   S
    C958   C522      1.35892  1_554   S
    C947   C446      1.50444      .   S
    C947   N646      1.33941      .   S
    C947   C511      1.35892  1_554   S
    C946   C445      1.50444      .   S
    C946   N645      1.33941      .   S
    C946   C198      1.35892  1_554   S
    N900   N658      1.32020      .   S
    N899   N657      1.32020      .   S
    N888   N646      1.32020      .   S
    N887   N645      1.32020      .   S
    O99    C445      1.26773      .   S
    O112   C458      1.26773      .   S
    O111   C457      1.26773      .   S
    O100   C446      1.26773      .   S
    C753   O312      1.27529      .   S
    C754   O313      1.27529      .   S
    C757   O316      1.27529      .   S
    C758   O317      1.27529      .   S
    C587   C462      1.45872      .   S
    C588   C463      1.45872      .   S
    C591   C466      1.45872      .   S
    C592   C467      1.45872      .   S
    C939   C924      1.48318      .   S
    C935   C920      1.48318      .   S
    C936   C921      1.48318      .   S
    C940   C925      1.48318      .   S
    O81    C385      1.25313      .   S
    O277   C397      1.25313      .   S
    O278   C398      1.25313      .   S
    O266   C386      1.25313      .   S
    C445   O84       1.26140      .   S
    C446   O85       1.26140      .   S
    C457   O96       1.26140      .   S
    C458   O97       1.26140      .   S
    C398   O82       1.27282      .   S
    C397   O63       1.27282      .   S
    C386   O72       1.27282      .   S
    C385   O71       1.27282      .   S
    O773   C467      1.25436      .   S
    O768   C462      1.25436      .   S
    O769   C463      1.25436      .   S
    O772   C466      1.25436      .   S
    C467   O215      1.26166      .   S
    C466   O214      1.26166      .   S
    C463   O211      1.26166      .   S
    C462   O210      1.26166      .   S
    C924   N879      1.35627      .   S
    C924   C804      1.35551      .   S
    C920   N875      1.35627      .   S
    C920   C800      1.35551      .   S
    C921   N876      1.35627      .   S
    C921   C801      1.35551      .   S
    C925   N880      1.35627      .   S
    C925   C805      1.35551      .   S
    N880   N865      1.33553      .   S
    N879   N864      1.33553      .   S
    N875   N860      1.33553      .   S
    N876   N861      1.33553      .   S
    C800   H815      0.94816  1_545   S
    C800   C544      1.39295      .   S
    C805   H820      0.94816  1_565   S
    C805   C549      1.39295      .   S
    C804   H819      0.94816      .   S
    C804   C548      1.39295      .   S
    C801   H816      0.94816      .   S
    C801   C545      1.39295      .   S
    N860   C544      1.37384      .   S
    N864   C548      1.37384      .   S
    N861   C545      1.37384      .   S
    N865   C549      1.37384      .   S
    O161   C342      1.27742      .   S
    O162   C343      1.27742      .   S
    O165   C346      1.27742      .   S
    O166   C347      1.27742      .   S
    C549   C669      1.48314      .   S
    C544   C664      1.48314      .   S
    C545   C665      1.48314      .   S
    C548   C668      1.48314      .   S
    O138   C499      1.26311      .   S
    O137   C498      1.26311      .   S
    O133   C494      1.26311      .   S
    O134   C495      1.26311      .   S
    O178   C509      1.26042      .   S
    O183   C192      1.26042      .   S
    O182   C191      1.26042      .   S
    O179   C510      1.26042      .   S
    O297   C477      1.25115      .   S
    O298   C478      1.25115      .   S
    O301   C481      1.25115      .   S
    O302   C482      1.25115      .   S
    C495   O69       1.26863      .   S
    C495   C375      1.46458      .   S
    C499   O202      1.26863      .   S
    C499   C379      1.46458      .   S
    C498   O201      1.26863      .   S
    C498   C378      1.46458      .   S
    C494   O68       1.26863      .   S
    C494   C374      1.46458      .   S
    N745   C379      1.37856      .   S
    N745   N790      1.33892      .   S
    N744   C378      1.37856      .   S
    N744   N789      1.33892      .   S
    N740   C374      1.37856      .   S
    N740   N785      1.33892      .   S
    N741   C375      1.37856      .   S
    N741   N786      1.33892      .   S
    C342   O225      1.24178      .   S
    C342   C402      1.49278      .   S
    C343   O226      1.24178      .   S
    C343   C403      1.49278      .   S
    C347   O230      1.24178      .   S
    C347   C407      1.49278      .   S
    C346   O229      1.24178      .   S
    C346   C406      1.49278      .   S
    C510   O119      1.25764      .   S
    C510   C635      1.41764      .   S
    C192   O123      1.25764      .   S
    C192   C639      1.41764      .   S
    C191   O122      1.25764      .   S
    C191   C638      1.41764      .   S
    C509   O118      1.25764      .   S
    C509   C634      1.41764      .   S
    C374   C709      1.37131      .   S
    C379   C714      1.37131      .   S
    C375   C710      1.37131      .   S
    C378   C713      1.37131      .   S
    C478   O328      1.25874      .   S
    C478   C418      1.49278      .   S
    C482   O332      1.25874      .   S
    C482   C422      1.49278      .   S
    C477   O327      1.25874      .   S
    C477   C417      1.49278      .   S
    C481   O331      1.25874      .   S
    C481   C421      1.49278      .   S
    N790   C910      1.36668      .   S
    N789   C909      1.36668      .   S
    N786   C906      1.36668      .   S
    N785   C885      1.36668      .   S
    C669   O364      1.28769  1_565   S
    C669   O247      1.28267      .   S
    C665   O360      1.28769      .   S
    C665   O243      1.28267      .   S
    C664   O359      1.28769  1_545   S
    C664   O242      1.28267      .   S
    C668   O363      1.28769      .   S
    C668   O246      1.28267      .   S
    N559   C634      1.41969      .   S
    N559   N574      1.42025      .   S
    N560   C635      1.41969      .   S
    N560   N575      1.42025      .   S
    N563   C638      1.41969      .   S
    N563   N578      1.42025      .   S
    N564   C639      1.41969      .   S
    N564   N579      1.42025      .   S
    H848   C833      0.95047      .   S
    H844   C829      0.95047      .   S
    H843   C828      0.95047      .   S
    H847   C832      0.95047      .   S
    H527   C512      0.95110      .   S
    H528   C513      0.95110      .   S
    H532   C517      0.95110      .   S
    H531   C516      0.95110      .   S
    C407   C833      1.34858      .   S
    C407   N262      1.32464      .   S
    C406   C832      1.34858      .   S
    C406   N261      1.32464      .   S
    C403   C829      1.34858      .   S
    C403   N258      1.32464      .   S
    C402   C828      1.34858      .   S
    C402   N257      1.32464      .   S
    C634   C604      1.41901      .   S
    C639   C609      1.41901      .   S
    C638   C608      1.41901      .   S
    C635   C605      1.41901      .   S
    C832   C681      1.38746      .   S
    C833   C682      1.38746      .   S
    C829   C678      1.38746      .   S
    C828   C677      1.38746      .   S
    C512   C417      1.38458      .   S
    C512   C948      1.35892      .   S
    C513   C418      1.38458      .   S
    C513   C949      1.35892      .   S
    C516   C421      1.38458      .   S
    C516   C952      1.35892      .   S
    C517   C422      1.38458      .   S
    C517   C953      1.35892      .   S
    C421   N893      1.32159      .   S
    C417   N889      1.32159      .   S
    C418   N890      1.32159      .   S
    C422   N894      1.32159      .   S
    N574   C589      1.42040      .   S
    N575   C590      1.42040      .   S
    N578   C593      1.42040      .   S
    N579   C594      1.42040      .   S
    C709   C885      1.38039      .   S
    C709   H724      0.94928      .   S
    C710   C906      1.38039      .   S
    C710   H725      0.94928      .   S
    C713   C909      1.38039      .   S
    C713   H728      0.94928      .   S
    C714   C910      1.38039      .   S
    C714   H729      0.94928      .   S
    C909   C759      1.47443      .   S
    C906   C756      1.47443      .   S
    C885   C755      1.47443      .   S
    C910   C760      1.47443      .   S
    O5     C58       1.28388  1_455   S
    O155   C942      1.28388      .   S
    O154   C941      1.28388      .   S
    O143   C930      1.28388  1_655   S
    N257   N692      1.31686      .   S
    N262   N697      1.31686      .   S
    N261   N696      1.31686      .   S
    N258   N693      1.31686      .   S
    O438   C759      1.26099      .   S
    O435   C756      1.26099      .   S
    O434   C755      1.26099      .   S
    O439   C760      1.26099      .   S
    O13    C58       1.27840      .   S
    O279   C930      1.27840      .   S
    O290   C941      1.27840      .   S
    O291   C942      1.27840      .   S
    C677   N692      1.31076      .   S
    C677   C387      1.49981      .   S
    C678   N693      1.31076      .   S
    C678   C388      1.49981      .   S
    C682   N697      1.31076      .   S
    C682   C392      1.49981      .   S
    C681   N696      1.31076      .   S
    C681   C391      1.49981      .   S
    C609   C594      1.42021      .   S
    C609   H624      0.95166      .   S
    C608   C593      1.42021      .   S
    C608   H623      0.95166      .   S
    C605   C590      1.42021      .   S
    C605   H620      0.95166      .   S
    C604   C589      1.42021      .   S
    C604   H619      0.95166      .   S
    C953   C452      1.50444      .   S
    C953   N652      1.33941      .   S
    C952   C451      1.50444      .   S
    C952   N651      1.33941      .   S
    C949   C448      1.50444      .   S
    C949   N648      1.33941      .   S
    C948   C447      1.50444      .   S
    C948   N647      1.33941      .   S
    N893   N651      1.32020      .   S
    N894   N652      1.32020      .   S
    N889   N647      1.32020      .   S
    N890   N648      1.32020      .   S
    C759   O318      1.27529      .   S
    C755   O314      1.27529      .   S
    C756   O315      1.27529      .   S
    C760   O319      1.27529      .   S
    O101   C447      1.26773      .   S
    O102   C448      1.26773      .   S
    O105   C451      1.26773      .   S
    O106   C452      1.26773      .   S
    C590   C465      1.45872      .   S
    C594   C469      1.45872      .   S
    C593   C468      1.45872      .   S
    C589   C464      1.45872      .   S
    C58    C57       1.48318  1_655   S
    C930   C915      1.48318  1_455   S
    C941   C926      1.48318      .   S
    C942   C927      1.48318      .   S
    O268   C388      1.25313      .   S
    O267   C387      1.25313      .   S
    O271   C391      1.25313      .   S
    O272   C392      1.25313      .   S
    C451   O90       1.26140      .   S
    C448   O87       1.26140      .   S
    C447   O86       1.26140      .   S
    C452   O91       1.26140      .   S
    C387   O73       1.27282      .   S
    C391   O77       1.27282      .   S
    C388   O74       1.27282      .   S
    C392   O78       1.27282      .   S
    O774   C468      1.25436      .   S
    O775   C469      1.25436      .   S
    O771   C465      1.25436      .   S
    O770   C464      1.25436      .   S
    C465   O213      1.26166      .   S
    C469   O217      1.26166      .   S
    C468   O216      1.26166      .   S
    C464   O212      1.26166      .   S
    C57    N54       1.35627      .   S
    C57    C49       1.35551  1_455   S
    C915   N870      1.35627      .   S
    C915   C795      1.35551  1_655   S
    C927   N882      1.35627      .   S
    C927   C807      1.35551      .   S
    C926   N881      1.35627      .   S
    C926   C806      1.35551      .   S
    N54    N53       1.33553      .   S
    N870   N855      1.33553      .   S
    N881   N866      1.33553      .   S
    N882   N867      1.33553      .   S
    C49    H50       0.94816      .   S
    C49    C31       1.39295  1_655   S
    C795   H810      0.94816      .   S
    C795   C539      1.39295  1_455   S
    C807   H822      0.94816      .   S
    C807   C551      1.39295      .   S
    C806   H821      0.94816      .   S
    C806   C550      1.39295      .   S
    N53    C31       1.37384      .   S
    N867   C551      1.37384      .   S
    N855   C539      1.37384      .   S
    N866   C550      1.37384      .   S
    O167   C348      1.27742      .   S
    O163   C344      1.27742      .   S
    O168   C349      1.27742      .   S
    O164   C345      1.27742      .   S
    C31    C39       1.48314      .   S
    C550   C670      1.48314      .   S
    C551   C671      1.48314      .   S
    C539   C659      1.48314      .   S
    O4     C27       1.26311      .   S
    O128   C489      1.26311      .   S
    O139   C500      1.26311      .   S
    O140   C501      1.26311      .   S
    O7     C28       1.26042      .   S
    O184   C193      1.26042      .   S
    O185   C194      1.26042      .   S
    O173   C504      1.26042      .   S
    O299   C479      1.25115      .   S
    O300   C480      1.25115      .   S
    O303   C483      1.25115      .   S
    O304   C484      1.25115      .   S
    C27    O8        1.26863      .   S
    C27    C19       1.46458      .   S
    C501   O204      1.26863      .   S
    C501   C381      1.46458      .   S
    C489   O188      1.26863      .   S
    C489   C369      1.46458      .   S
    C500   O203      1.26863      .   S
    C500   C380      1.46458      .   S
    N45    C19       1.37856      .   S
    N45    N48       1.33892      .   S
    N735   C369      1.37856      .   S
    N735   N780      1.33892      .   S
    N747   C381      1.37856      .   S
    N747   N792      1.33892      .   S
    N746   C380      1.37856      .   S
    N746   N791      1.33892      .   S
    C348   O231      1.24178      .   S
    C348   C408      1.49278      .   S
    C345   O228      1.24178      .   S
    C345   C405      1.49278      .   S
    C344   O227      1.24178      .   S
    C344   C404      1.49278      .   S
    C349   O232      1.24178      .   S
    C349   C409      1.49278      .   S
    C28    O3        1.25764      .   S
    C28    C37       1.41764      .   S
    C504   O113      1.25764      .   S
    C504   C629      1.41764      .   S
    C194   O125      1.25764      .   S
    C194   C641      1.41764      .   S
    C193   O124      1.25764      .   S
    C193   C640      1.41764      .   S
    C19    C42       1.37131      .   S
    C381   C716      1.37131      .   S
    C380   C715      1.37131      .   S
    C369   C704      1.37131      .   S
    C479   O329      1.25874      .   S
    C479   C419      1.49278      .   S
    C480   O330      1.25874      .   S
    C480   C420      1.49278      .   S
    C483   O333      1.25874      .   S
    C483   C423      1.49278      .   S
    C484   O334      1.25874      .   S
    C484   C424      1.49278      .   S
    N48    C56       1.36668      .   S
    N780   C901      1.36668      .   S
    N792   C912      1.36668      .   S
    N791   C911      1.36668      .   S
    C39    O18       1.28769  1_455   S
    C39    O11       1.28267      .   S
    C671   O366      1.28769      .   S
    C671   O249      1.28267      .   S
    C670   O365      1.28769      .   S
    C670   O248      1.28267      .   S
    C659   O354      1.28769  1_655   S
    C659   O237      1.28267      .   S
    N32    C37       1.41969      .   S
    N32    N33       1.42025      .   S
    N566   C641      1.41969      .   S
    N566   N581      1.42025      .   S
    N565   C640      1.41969      .   S
    N565   N580      1.42025      .   S
    N554   C629      1.41969      .   S
    N554   N569      1.42025      .   S
    H846   C831      0.95047      .   S
    H845   C830      0.95047      .   S
    H849   C834      0.95047      .   S
    H850   C835      0.95047      .   S
    H534   C519      0.95110      .   S
    H533   C518      0.95110      .   S
    H530   C515      0.95110      .   S
    H529   C514      0.95110      .   S
    C409   C835      1.34858      .   S
    C409   N264      1.32464      .   S
    C408   C834      1.34858      .   S
    C408   N263      1.32464      .   S
    C405   C831      1.34858      .   S
    C405   N260      1.32464      .   S
    C404   C830      1.34858      .   S
    C404   N259      1.32464      .   S
    C37    C35       1.41901      .   S
    C629   C599      1.41901      .   S
    C641   C611      1.41901      .   S
    C640   C610      1.41901      .   S
    C830   C679      1.38746      .   S
    C835   C684      1.38746      .   S
    C834   C683      1.38746      .   S
    C831   C680      1.38746      .   S
    C515   C420      1.38458      .   S
    C515   C951      1.35892      .   S
    C519   C424      1.38458      .   S
    C519   C955      1.35892      .   S
    C518   C423      1.38458      .   S
    C518   C954      1.35892      .   S
    C514   C419      1.38458      .   S
    C514   C950      1.35892      .   S
    C419   N891      1.32159      .   S
    C424   N896      1.32159      .   S
    C423   N895      1.32159      .   S
    C420   N892      1.32159      .   S
    N33    C34       1.42040      .   S
    N581   C596      1.42040      .   S
    N580   C595      1.42040      .   S
    N569   C584      1.42040      .   S
    C42    C56       1.38039      .   S
    C42    H43       0.94928      .   S
    C704   C901      1.38039      .   S
    C704   H719      0.94928      .   S
    C716   C912      1.38039      .   S
    C716   H731      0.94928      .   S
    C715   C911      1.38039      .   S
    C715   H730      0.94928      .   S
    C56    C46       1.47443      .   S
    C911   C761      1.47443      .   S
    C901   C750      1.47443      .   S
    C912   C762      1.47443      .   S
    O145   C932      1.28388      .   S
    O144   C931      1.28388      .   S
    O156   C943      1.28388      .   S
    O157   C944      1.28388      .   S
    N259   N694      1.31686      .   S
    N260   N695      1.31686      .   S
    N263   N698      1.31686      .   S
    N264   N699      1.31686      .   S
    O23    C46       1.26099      .   S
    O440   C761      1.26099      .   S
    O441   C762      1.26099      .   S
    O429   C750      1.26099      .   S
    O280   C931      1.27840  1_565   S
    O281   C932      1.27840      .   S
    O292   C943      1.27840      .   S
    O293   C944      1.27840  1_545   S
    C683   N698      1.31076      .   S
    C683   C393      1.49981      .   S
    C684   N699      1.31076      .   S
    C684   C394      1.49981      .   S
    C680   N695      1.31076      .   S
    C680   C390      1.49981      .   S
    C679   N694      1.31076      .   S
    C679   C389      1.49981      .   S
    C35    C34       1.42021      .   S
    C35    H36       0.95166      .   S
    C611   C596      1.42021      .   S
    C611   H626      0.95166      .   S
    C610   C595      1.42021      .   S
    C610   H625      0.95166      .   S
    C599   C584      1.42021      .   S
    C599   H614      0.95166      .   S
    C955   C454      1.50444      .   S
    C955   N654      1.33941      .   S
    C950   C449      1.50444      .   S
    C950   N649      1.33941      .   S
    C954   C453      1.50444      .   S
    C954   N653      1.33941      .   S
    C951   C450      1.50444      .   S
    C951   N650      1.33941      .   S
    N895   N653      1.32020      .   S
    N896   N654      1.32020      .   S
    N892   N650      1.32020      .   S
    N891   N649      1.32020      .   S
    C750   O309      1.27529      .   S
    O104   C450      1.26773      .   S
    O108   C454      1.26773      .   S
    C46    O15       1.27529      .   S
    C762   O321      1.27529      .   S
    O107   C453      1.26773      .   S
    C761   O320      1.27529      .   S
    O103   C449      1.26773      .   S
    C34    C25       1.45872      .   S
    C584   C459      1.45872      .   S
    C595   C470      1.45872      .   S
    C596   C471      1.45872      .   S
    C931   C916      1.48318      .   S
    C932   C917      1.48318      .   S
    C943   C928      1.48318      .   S
    C944   C929      1.48318      .   S
    O270   C390      1.25313      .   S
    O273   C393      1.25313      .   S
    O274   C394      1.25313      .   S
    O269   C389      1.25313      .   S
    C449   O88       1.26140      .   S
    C450   O89       1.26140      .   S
    C453   O92       1.26140      .   S
    C454   O93       1.26140      .   S
    C389   O75       1.27282      .   S
    C390   O76       1.27282      .   S
    C393   O79       1.27282      .   S
    C394   O60       1.27282      .   S
    O47    C25       1.25436      .   S
    O776   C470      1.25436      .   S
    O777   C471      1.25436      .   S
    O765   C459      1.25436      .   S
    C25    O9        1.26166      .   S
    C459   O207      1.26166      .   S
    C470   O218      1.26166      .   S
    C471   O219      1.26166      .   S
    C929   N884      1.35627      .   S
    C929   C809      1.35551      .   S
    C917   N872      1.35627      .   S
    C917   C797      1.35551      .   S
    C916   N871      1.35627      .   S
    C916   C796      1.35551      .   S
    C928   N883      1.35627      .   S
    C928   C808      1.35551      .   S
    N872   N857      1.33553      .   S
    N871   N856      1.33553      .   S
    N883   N868      1.33553      .   S
    N884   N869      1.33553      .   S
    C809   H824      0.94816  1_565   S
    C809   C553      1.39295      .   S
    C808   H823      0.94816      .   S
    C808   C552      1.39295      .   S
    C796   H811      0.94816  1_545   S
    C796   C540      1.39295      .   S
    C797   H812      0.94816      .   S
    C797   C541      1.39295      .   S
    N868   C552      1.37384      .   S
    N856   C540      1.37384      .   S
    N857   C541      1.37384      .   S
    N869   C553      1.37384      .   S
    O6     C17       1.27742      .   S
    O158   C339      1.27742      .   S
    O169   C350      1.27742      .   S
    O170   C351      1.27742      .   S
    C540   C660      1.48314      .   S
    C541   C661      1.48314      .   S
    C552   C672      1.48314      .   S
    C553   C673      1.48314      .   S
    O141   C502      1.26311      .   S
    O142   C503      1.26311      .   S
    O129   C490      1.26311      .   S
    O130   C491      1.26311      .   S
    O174   C505      1.26042      .   S
    O186   C195      1.26042      .   S
    O187   C196      1.26042      .   S
    O175   C506      1.26042      .   S
    O14    C26       1.25115      .   S
    O294   C474      1.25115      .   S
    O305   C485      1.25115      .   S
    O306   C486      1.25115      .   S
    C490   O64       1.26863      .   S
    C490   C370      1.46458      .   S
    C503   O206      1.26863      .   S
    C503   C383      1.46458      .   S
    C491   O65       1.26863      .   S
    C491   C371      1.46458      .   S
    C502   O205      1.26863      .   S
    C502   C382      1.46458      .   S
    N749   C383      1.37856      .   S
    N749   N794      1.33892      .   S
    N748   C382      1.37856      .   S
    N748   N793      1.33892      .   S
    N737   C371      1.37856      .   S
    N737   N782      1.33892      .   S
    N736   C370      1.37856      .   S
    N736   N781      1.33892      .   S
    C351   O234      1.24178      .   S
    C351   C411      1.49278      .   S
    C17    O10       1.24178      .   S
    C17    C21       1.49278      .   S
    C339   O222      1.24178      .   S
    C339   C399      1.49278      .   S
    C350   O233      1.24178      .   S
    C350   C410      1.49278      .   S
    C505   O114      1.25764      .   S
    C505   C630      1.41764      .   S
    C506   O115      1.25764      .   S
    C506   C631      1.41764      .   S
    C195   O126      1.25764      .   S
    C195   C642      1.41764      .   S
    C196   O127      1.25764      .   S
    C196   C643      1.41764      .   S
    C383   C718      1.37131      .   S
    C382   C717      1.37131      .   S
    C371   C706      1.37131      .   S
    C370   C705      1.37131      .   S
    C485   O335      1.25874      .   S
    C485   C425      1.49278      .   S
    C26    O16       1.25874      .   S
    C26    C22       1.49278      .   S
    C486   O336      1.25874      .   S
    C486   C426      1.49278      .   S
    C474   O324      1.25874      .   S
    C474   C414      1.49278      .   S
    N794   C914      1.36668      .   S
    N793   C913      1.36668      .   S
    N782   C903      1.36668      .   S
    N781   C902      1.36668      .   S
    C661   O356      1.28769      .   S
    C661   O239      1.28267      .   S
    C660   O355      1.28769  1_545   S
    C660   O238      1.28267      .   S
    C672   O367      1.28769      .   S
    C672   O250      1.28267      .   S
    C673   O368      1.28769  1_565   S
    C673   O251      1.28267      .   S
    N568   C643      1.41969      .   S
    N568   N583      1.42025      .   S
    N555   C630      1.41969      .   S
    N555   N570      1.42025      .   S
    N556   C631      1.41969      .   S
    N556   N571      1.42025      .   S
    N567   C642      1.41969      .   S
    N567   N582      1.42025      .   S
    H52    C51       0.95047      .   S
    H852   C837      0.95047      .   S
    H851   C836      0.95047      .   S
    H840   C825      0.95047      .   S
    H524   C197      0.95110      .   S
    H535   C520      0.95110      .   S
    H30    C29       0.95110      .   S
    H536   C521      0.95110      .   S
    C21    C51       1.34858      .   S
    C21    N44       1.32464      .   S
    C399   C825      1.34858      .   S
    C399   N254      1.32464      .   S
    C410   C836      1.34858      .   S
    C410   N265      1.32464      .   S
    C411   C837      1.34858      .   S
    C411   N732      1.32464      .   S
    C643   C613      1.41901      .   S
    C642   C612      1.41901      .   S
    C631   C601      1.41901      .   S
    C630   C600      1.41901      .   S
    C51    C40       1.38746      .   S
    C825   C674      1.38746      .   S
    C837   C686      1.38746      .   S
    C836   C685      1.38746      .   S
    C29    C22       1.38458      .   S
    C29    C59       1.35892      .   S
    C197   C414      1.38458      .   S
    C197   C945      1.35892      .   S
    C521   C426      1.38458      .   S
    C521   C957      1.35892      .   S
    C520   C425      1.38458      .   S
    C520   C956      1.35892      .   S
    C426   N898      1.32159      .   S
    C414   N886      1.32159      .   S
    C425   N897      1.32159      .   S
    C22    N55       1.32159      .   S
    N583   C598      1.42040      .   S
    N582   C597      1.42040      .   S
    N571   C586      1.42040      .   S
    N570   C585      1.42040      .   S
    C718   C914      1.38039      .   S
    C718   H253      0.94928      .   S
    C717   C913      1.38039      .   S
    C717   H252      0.94928      .   S
    C706   C903      1.38039      .   S
    C706   H721      0.94928      .   S
    C705   C902      1.38039      .   S
    C705   H720      0.94928      .   S
    C914   C764      1.47443      .   S
    C902   C751      1.47443      .   S
    C913   C763      1.47443      .   S
    C903   C752      1.47443      .   S
    O147   C934      1.28388      .   S
    O151   C938      1.28388  1_655   S
    O150   C937      1.28388  1_455   S
    O146   C933      1.28388      .   S
    N44    N41       1.31686      .   S
    N732   N701      1.31686      .   S
    N254   N689      1.31686      .   S
    N265   N700      1.31686      .   S
    O431   C752      1.26099      .   S
    O442   C763      1.26099      .   S
    O443   C764      1.26099      .   S
    O430   C751      1.26099      .   S
    O286   C937      1.27840      .   S
    O282   C933      1.27840      .   S
    O287   C938      1.27840      .   S
    O283   C934      1.27840      .   S
    C40    N41       1.31076      .   S
    C40    C20       1.49981      .   S
    C685   N700      1.31076      .   S
    C685   C395      1.49981      .   S
    C686   N701      1.31076      .   S
    C686   C396      1.49981      .   S
    C674   N689      1.31076      .   S
    C674   C384      1.49981      .   S
    C601   C586      1.42021      .   S
    C601   H616      0.95166      .   S
    C613   C598      1.42021      .   S
    C613   H628      0.95166      .   S
    C600   C585      1.42021      .   S
    C600   H615      0.95166      .   S
    C612   C597      1.42021      .   S
    C612   H627      0.95166      .   S
    C59    C24       1.50444      .   S
    C59    N38       1.33941      .   S
    C945   C444      1.50444      .   S
    C945   N644      1.33941      .   S
    C956   C455      1.50444      .   S
    C956   N655      1.33941      .   S
    C957   C456      1.50444      .   S
    C957   N656      1.33941      .   S
    N55    N38       1.32020      .   S
    N886   N644      1.32020      .   S
    N897   N655      1.32020      .   S
    N898   N656      1.32020      .   S
    C764   O323      1.27529      .   S
    O2     C24       1.26773      .   S
    C751   O310      1.27529      .   S
    C752   O311      1.27529      .   S
    C763   O322      1.27529      .   S
    O98    C444      1.26773      .   S
    O109   C455      1.26773      .   S
    O110   C456      1.26773      .   S
    C585   C460      1.45872      .   S
    C586   C461      1.45872      .   S
    C597   C472      1.45872      .   S
    C598   C473      1.45872      .   S
    C933   C918      1.48318      .   S
    C934   C919      1.48318      .   S
    C937   C922      1.48318  1_655   S
    C938   C923      1.48318  1_455   S
    O12    C20       1.25313      .   S
    O275   C395      1.25313      .   S
    O276   C396      1.25313      .   S
    O80    C384      1.25313      .   S
    C455   O94       1.26140      .   S
    C444   O83       1.26140      .   S
    C24    O1        1.26140      .   S
    C456   O95       1.26140      .   S
    C20    O0        1.27282      .   S
    C396   O62       1.27282      .   S
    C384   O70       1.27282      .   S
    C395   O61       1.27282      .   S
    O767   C461      1.25436      .   S
    O778   C472      1.25436      .   S
    O766   C460      1.25436      .   S
    O779   C473      1.25436      .   S
    C460   O208      1.26166      .   S
    C461   O209      1.26166      .   S
    C472   O220      1.26166      .   S
    C473   O221      1.26166      .   S
    C922   N877      1.35627      .   S
    C922   C802      1.35551  1_455   S
    C919   N874      1.35627      .   S
    C919   C799      1.35551      .   S
    C923   N878      1.35627      .   S
    C923   C803      1.35551  1_655   S
    C918   N873      1.35627      .   S
    C918   C798      1.35551      .   S
    N873   N858      1.33553      .   S
    N874   N859      1.33553      .   S
    N877   N862      1.33553      .   S
    N878   N863      1.33553      .   S
    C798   H813      0.94816      .   S
    C798   C542      1.39295      .   S
    C799   H814      0.94816      .   S
    C799   C543      1.39295      .   S
    C802   H817      0.94816      .   S
    C802   C546      1.39295  1_655   S
    C803   H818      0.94816      .   S
    C803   C547      1.39295  1_455   S
    N858   C542      1.37384      .   S
    N859   C543      1.37384      .   S
    N862   C546      1.37384      .   S
    N863   C547      1.37384      .   S
    O172   C353      1.27742      .   S
    O171   C352      1.27742      .   S
    O160   C341      1.27742      .   S
    O159   C340      1.27742      .   S
    C542   C662      1.48314      .   S
    C543   C663      1.48314      .   S
    C546   C666      1.48314      .   S
    C547   C667      1.48314      .   S
    O136   C497      1.26311      .   S
    O135   C496      1.26311      .   S
    O132   C493      1.26311      .   S
    O131   C492      1.26311      .   S
    O181   C190      1.26042      .   S
    O177   C508      1.26042      .   S
    O180   C189      1.26042      .   S
    O176   C507      1.26042      .   S
    O295   C475      1.25115      .   S
    O308   C488      1.25115      .   S
    O296   C476      1.25115      .   S
    O307   C487      1.25115      .   S
    C497   O200      1.26863      .   S
    C497   C377      1.46458      .   S
    C496   O199      1.26863      .   S
    C496   C376      1.46458      .   S
    C493   O67       1.26863      .   S
    C493   C373      1.46458      .   S
    C492   O66       1.26863      .   S
    C492   C372      1.46458      .   S
    N738   C372      1.37856      .   S
    N738   N783      1.33892      .   S
    N739   C373      1.37856      .   S
    N739   N784      1.33892      .   S
    N742   C376      1.37856      .   S
    N742   N787      1.33892      .   S
    N743   C377      1.37856      .   S
    N743   N788      1.33892      .   S
    C353   O236      1.24178      .   S
    C353   C413      1.49278      .   S
    C352   O235      1.24178      .   S
    C352   C412      1.49278      .   S
    C341   O224      1.24178      .   S
    C341   C401      1.49278      .   S
    C340   O223      1.24178      .   S
    C340   C400      1.49278      .   S
    C508   O117      1.25764      .   S
    C508   C633      1.41764      .   S
    C507   O116      1.25764      .   S
    C507   C632      1.41764      .   S
    C189   O120      1.25764      .   S
    C189   C636      1.41764      .   S
    C190   O121      1.25764      .   S
    C190   C637      1.41764      .   S
    C476   O326      1.25874      .   S
    C487   O337      1.25874      .   S
    C488   O338      1.25874      .   S
    C475   O325      1.25874      .   S
    C663   O358      1.28769      .   S
    C663   O241      1.28267      .   S
    C667   O362      1.28769  1_655   S
    C667   O245      1.28267      .   S
    C662   O357      1.28769      .   S
    C662   O240      1.28267      .   S
    C666   O361      1.28769  1_455   S
    C666   O244      1.28267      .   S
    N561   C636      1.41969      .   S
    N562   C637      1.41969      .   S
    N558   C633      1.41969      .   S
    N557   C632      1.41969      .   S
    H842   C827      0.95047      .   S
    H853   C838      0.95047      .   S
    H841   C826      0.95047      .   S
    H854   C839      0.95047      .   S
    H538   C523      0.95110      .   S
    H537   C522      0.95110      .   S
    H526   C511      0.95110      .   S
    H525   C198      0.95110      .   S
    C413   C839      1.34858      .   S
    C412   C838      1.34858      .   S
    C401   C827      1.34858      .   S
    C400   C826      1.34858      .   S
