# CIF file generated by openbabel 2.4.90, see http://openbabel.sf.net
data_I
_chemical_name_common ''
_cell_length_a 39.222
_cell_length_b 26.018
_cell_length_c 27.887
_cell_angle_alpha 90
_cell_angle_beta 90
_cell_angle_gamma 90
_space_group_name_H-M_alt 'P 1'
_space_group_name_Hall 'P 1'
loop_
    _symmetry_equiv_pos_as_xyz
    x,y,z
loop_
    _atom_site_label
    _atom_site_type_symbol
    _atom_site_fract_x
    _atom_site_fract_y
    _atom_site_fract_z
    _atom_site_occupancy
    Zr0     Zr   0.51253   0.19131   0.20101   1.000
    Zr1     Zr   0.23747   0.44131   0.95101   1.000
    Zr2     Zr   0.98690   0.30022   0.55889   1.000
    Zr3     Zr   0.93974   0.21879   0.63324   1.000
    Zr4     Zr   0.98664   0.31888   0.68418   1.000
    Zr5     Zr   0.01232   0.17290   0.57488   1.000
    Zr6     Zr   0.05965   0.27276   0.62667   1.000
    O7      O    0.96218   0.29020   0.62420   1.000
    O8      O    0.98509   0.17840   0.63840   1.000
    O9      O    0.15257   0.48090   0.83440   1.000
    O10     O    0.01749   0.33460   0.61870   1.000
    H11     H    0.02540   0.37080   0.61410   1.000
    O12     O    0.84829   0.00150   0.83270   1.000
    O13     O    0.81786   0.05430   0.78430   1.000
    O14     O    0.81637   0.05290   0.48230   1.000
    O15     O    0.15218   0.48590   0.42510   1.000
    O16     O    0.00919   0.18980   0.26150   1.000
    O17     O    0.07849   0.33900   0.66810   1.000
    O18     O    0.84718   0.00610   0.42950   1.000
    Zr19    Zr   0.01253   0.19131   0.70101   1.000
    O20     O    0.18238   0.41970   0.45740   1.000
    O21     O    0.92138   0.15060   0.59370   1.000
    O22     O    0.03232   0.36580   0.71000   1.000
    O23     O    0.96593   0.24110   0.70180   1.000
    H24     H    0.95170   0.23900   0.73140   1.000
    O25     O    0.00865   0.18130   0.49660   1.000
    O26     O    0.18320   0.42280   0.79280   1.000
    O27     O    0.99170   0.27270   0.27480   1.000
    O28     O    0.92244   0.16310   0.68750   1.000
    O29     O    0.07750   0.32590   0.57010   1.000
    O30     O    0.96944   0.14400   0.73090   1.000
    C31     C    0.06330   0.36450   0.70090   1.000
    O32     O    0.99240   0.26680   0.48470   1.000
    C33     C    0.12380   0.42160   0.46680   1.000
    C34     C    0.15610   0.44590   0.80290   1.000
    C35     C    0.08540   0.39550   0.73350   1.000
    C36     C    0.91780   0.10480   0.75050   1.000
    O37     O    0.03102   0.33990   0.52340   1.000
    C38     C    0.84530   0.03600   0.80120   1.000
    C39     C    0.93690   0.12120   0.56510   1.000
    C40     C    0.93830   0.14080   0.72040   1.000
    C41     C    0.15530   0.44460   0.44850   1.000
    C42     C    0.84360   0.03460   0.46570   1.000
    C43     C    0.88300   0.09610   0.74860   1.000
    H44     H    0.86670   0.11160   0.72790   1.000
    C45     C    0.00190   0.21360   0.41900   1.000
    N46     N    0.90586   0.03190   0.47350   1.000
    N47     N    0.93159   0.05560   0.50170   1.000
    C48     C    0.91536   0.08830   0.53550   1.000
    C49     C    0.87961   0.08480   0.52810   1.000
    H50     H    0.86260   0.10270   0.54580   1.000
    C51     C    0.87374   0.05000   0.48980   1.000
    N52     N    0.90720   0.04810   0.80460   1.000
    C53     C    0.00120   0.22120   0.47170   1.000
    C54     C    0.12390   0.43050   0.77770   1.000
    N55     N    0.09490   0.45070   0.79150   1.000
    C56     C    0.11780   0.38570   0.50180   1.000
    H57     H    0.13430   0.36870   0.52100   1.000
    N58     N    0.07180   0.42850   0.76420   1.000
    N59     N    0.09250   0.43700   0.44950   1.000
    O60     O    0.02540   0.26480   0.68120   1.000
    O61     O    0.02508   0.25010   0.57660   1.000
    O62     O    0.04737   0.18550   0.63710   1.000
    H63     H    0.06730   0.16170   0.64000   1.000
    O64     O    0.96573   0.22070   0.56150   1.000
    H65     H    0.95140   0.21030   0.53340   1.000
    C66     C    0.06200   0.34550   0.53430   1.000
    O67     O    0.96844   0.11880   0.55800   1.000
    N68     N    0.06740   0.41130   0.47150   1.000
    C69     C    0.99610   0.24630   0.38030   1.000
    H70     H    0.98990   0.28150   0.38150   1.000
    C71     C    0.11940   0.39550   0.74070   1.000
    H72     H    0.13630   0.37600   0.72440   1.000
    N73     N    0.00960   0.16550   0.40180   1.000
    N74     N    0.00920   0.16860   0.35400   1.000
    N75     N    0.93150   0.07540   0.78400   1.000
    C76     C    0.08290   0.37910   0.50350   1.000
    C77     C    0.00110   0.21720   0.34060   1.000
    C78     C    0.99990   0.22740   0.28830   1.000
    C79     C    0.87770   0.06020   0.78320   1.000
    Zr80    Zr   0.76232   0.57710   0.82488   1.000
    Zr81    Zr   0.73768   0.92290   0.82488   1.000
    Zr82    Zr   0.98747   0.80869   0.70101   1.000
    Zr83    Zr   0.26253   0.05869   0.95101   1.000
    O84     O    0.09743   0.23090   0.58440   1.000
    O85     O    0.65257   0.98090   0.83440   1.000
    O86     O    0.34743   0.01910   0.83440   1.000
    O87     O    0.90257   0.26910   0.08440   1.000
    Zr88    Zr   0.48747   0.80869   0.20101   1.000
    Zr89    Zr   0.76253   0.05869   0.45101   1.000
    Zr90    Zr   0.73747   0.44131   0.45101   1.000
    Zr91    Zr   0.01253   0.69131   0.20101   1.000
    Zr92    Zr   0.98747   0.30869   0.20101   1.000
    Zr93    Zr   0.26253   0.55869   0.45101   1.000
    Zr94    Zr   0.23747   0.94131   0.45101   1.000
    Zr95    Zr   0.51253   0.69131   0.70101   1.000
    Zr96    Zr   0.48747   0.30869   0.70101   1.000
    Zr97    Zr   0.76253   0.55869   0.95101   1.000
    Zr98    Zr   0.73747   0.94131   0.95101   1.000
    Zr99    Zr   0.01310   0.69978   0.55889   1.000
    Zr100   Zr   0.23690   0.94978   0.80889   1.000
    Zr101   Zr   0.26310   0.55022   0.80889   1.000
    Zr102   Zr   0.48690   0.30022   0.05889   1.000
    Zr103   Zr   0.51310   0.69978   0.05889   1.000
    Zr104   Zr   0.73690   0.94978   0.30889   1.000
    Zr105   Zr   0.76310   0.55022   0.30889   1.000
    Zr106   Zr   0.98690   0.80022   0.05889   1.000
    Zr107   Zr   0.01310   0.19978   0.05889   1.000
    Zr108   Zr   0.23690   0.44978   0.30889   1.000
    Zr109   Zr   0.26310   0.05022   0.30889   1.000
    Zr110   Zr   0.48690   0.80022   0.55889   1.000
    Zr111   Zr   0.51310   0.19978   0.55889   1.000
    Zr112   Zr   0.73690   0.44978   0.80889   1.000
    Zr113   Zr   0.76310   0.05022   0.80889   1.000
    Zr114   Zr   0.06026   0.78121   0.63324   1.000
    Zr115   Zr   0.18974   0.03121   0.88324   1.000
    Zr116   Zr   0.31026   0.46879   0.88324   1.000
    Zr117   Zr   0.43974   0.21879   0.13324   1.000
    Zr118   Zr   0.56026   0.78121   0.13324   1.000
    Zr119   Zr   0.68974   0.03121   0.38324   1.000
    Zr120   Zr   0.81026   0.46879   0.38324   1.000
    Zr121   Zr   0.93974   0.71879   0.13324   1.000
    Zr122   Zr   0.06026   0.28121   0.13324   1.000
    Zr123   Zr   0.18974   0.53121   0.38324   1.000
    Zr124   Zr   0.31026   0.96879   0.38324   1.000
    Zr125   Zr   0.43974   0.71879   0.63324   1.000
    Zr126   Zr   0.56026   0.28121   0.63324   1.000
    Zr127   Zr   0.68974   0.53121   0.88324   1.000
    Zr128   Zr   0.81026   0.96879   0.88324   1.000
    Zr129   Zr   0.01336   0.68112   0.68418   1.000
    Zr130   Zr   0.23664   0.93112   0.93418   1.000
    Zr131   Zr   0.26336   0.56888   0.93418   1.000
    Zr132   Zr   0.48664   0.31888   0.18418   1.000
    Zr133   Zr   0.51336   0.68112   0.18418   1.000
    Zr134   Zr   0.73664   0.93112   0.43418   1.000
    Zr135   Zr   0.76336   0.56888   0.43418   1.000
    Zr136   Zr   0.98664   0.81888   0.18418   1.000
    Zr137   Zr   0.01336   0.18112   0.18418   1.000
    Zr138   Zr   0.23664   0.43112   0.43418   1.000
    Zr139   Zr   0.26336   0.06888   0.43418   1.000
    Zr140   Zr   0.48664   0.81888   0.68418   1.000
    Zr141   Zr   0.51336   0.18112   0.68418   1.000
    Zr142   Zr   0.73664   0.43112   0.93418   1.000
    Zr143   Zr   0.76336   0.06888   0.93418   1.000
    Zr144   Zr   0.98768   0.82710   0.57488   1.000
    Zr145   Zr   0.26232   0.07710   0.82488   1.000
    Zr146   Zr   0.23768   0.42290   0.82488   1.000
    Zr147   Zr   0.51232   0.17290   0.07488   1.000
    Zr148   Zr   0.48768   0.82710   0.07488   1.000
    Zr149   Zr   0.76232   0.07710   0.32488   1.000
    Zr150   Zr   0.73768   0.42290   0.32488   1.000
    Zr151   Zr   0.01232   0.67290   0.07488   1.000
    Zr152   Zr   0.98768   0.32710   0.07488   1.000
    Zr153   Zr   0.26232   0.57710   0.32488   1.000
    Zr154   Zr   0.23768   0.92290   0.32488   1.000
    Zr155   Zr   0.51232   0.67290   0.57488   1.000
    Zr156   Zr   0.48768   0.32710   0.57488   1.000
    O157    O    0.43238   0.83030   0.70740   1.000
    O158    O    0.06762   0.66970   0.70740   1.000
    O159    O    0.68238   0.41970   0.95740   1.000
    O160    O    0.31762   0.58030   0.95740   1.000
    O161    O    0.93238   0.83030   0.20740   1.000
    O162    O    0.56762   0.66970   0.20740   1.000
    Zr163   Zr   0.94035   0.72724   0.62667   1.000
    Zr164   Zr   0.30965   0.97724   0.87667   1.000
    Zr165   Zr   0.19035   0.52276   0.87667   1.000
    Zr166   Zr   0.55965   0.27276   0.12667   1.000
    Zr167   Zr   0.44035   0.72724   0.12667   1.000
    Zr168   Zr   0.80965   0.97724   0.37667   1.000
    Zr169   Zr   0.69035   0.52276   0.37667   1.000
    Zr170   Zr   0.05965   0.77276   0.12667   1.000
    Zr171   Zr   0.94035   0.22724   0.12667   1.000
    Zr172   Zr   0.30965   0.47724   0.37667   1.000
    Zr173   Zr   0.19035   0.02276   0.37667   1.000
    Zr174   Zr   0.55965   0.77276   0.62667   1.000
    Zr175   Zr   0.44035   0.22724   0.62667   1.000
    Zr176   Zr   0.80965   0.47724   0.87667   1.000
    Zr177   Zr   0.69035   0.02276   0.87667   1.000
    O178    O    0.03782   0.70980   0.62420   1.000
    O179    O    0.21218   0.95980   0.87420   1.000
    O180    O    0.28782   0.54020   0.87420   1.000
    O181    O    0.46218   0.29020   0.12420   1.000
    O182    O    0.53782   0.70980   0.12420   1.000
    O183    O    0.71218   0.95980   0.37420   1.000
    O184    O    0.78782   0.54020   0.37420   1.000
    O185    O    0.96218   0.79020   0.12420   1.000
    O186    O    0.03782   0.20980   0.12420   1.000
    O187    O    0.21218   0.45980   0.37420   1.000
    O188    O    0.28782   0.04020   0.37420   1.000
    O189    O    0.46218   0.79020   0.62420   1.000
    O190    O    0.53782   0.20980   0.62420   1.000
    O191    O    0.71218   0.45980   0.87420   1.000
    O192    O    0.78782   0.04020   0.87420   1.000
    O193    O    0.01491   0.82160   0.63840   1.000
    O194    O    0.23509   0.07160   0.88840   1.000
    O195    O    0.26491   0.42840   0.88840   1.000
    O196    O    0.48509   0.17840   0.13840   1.000
    O197    O    0.51491   0.82160   0.13840   1.000
    O198    O    0.73509   0.07160   0.38840   1.000
    O199    O    0.76491   0.42840   0.38840   1.000
    O200    O    0.98509   0.67840   0.13840   1.000
    O201    O    0.01491   0.32160   0.13840   1.000
    O202    O    0.23509   0.57160   0.38840   1.000
    O203    O    0.26491   0.92840   0.38840   1.000
    O204    O    0.48509   0.67840   0.63840   1.000
    O205    O    0.51491   0.32160   0.63840   1.000
    O206    O    0.73509   0.57160   0.88840   1.000
    O207    O    0.76491   0.92840   0.88840   1.000
    O208    O    0.84743   0.51910   0.83440   1.000
    O209    O    0.40257   0.76910   0.08440   1.000
    O210    O    0.09743   0.73090   0.08440   1.000
    O211    O    0.65257   0.48090   0.33440   1.000
    O212    O    0.34743   0.51910   0.33440   1.000
    O213    O    0.90257   0.76910   0.58440   1.000
    O214    O    0.59743   0.73090   0.58440   1.000
    O215    O    0.15257   0.98090   0.33440   1.000
    O216    O    0.84743   0.01910   0.33440   1.000
    O217    O    0.40257   0.26910   0.58440   1.000
    O218    O    0.81680   0.57720   0.79280   1.000
    O219    O    0.43320   0.82720   0.04280   1.000
    O220    O    0.59743   0.23090   0.08440   1.000
    O221    O    0.98251   0.66540   0.61870   1.000
    O222    O    0.26749   0.91540   0.86870   1.000
    O223    O    0.23251   0.58460   0.86870   1.000
    O224    O    0.51749   0.33460   0.11870   1.000
    O225    O    0.48251   0.66540   0.11870   1.000
    O226    O    0.76749   0.91540   0.36870   1.000
    O227    O    0.73251   0.58460   0.36870   1.000
    O228    O    0.01749   0.83460   0.11870   1.000
    O229    O    0.98251   0.16540   0.11870   1.000
    O230    O    0.26749   0.41540   0.36870   1.000
    O231    O    0.23251   0.08460   0.36870   1.000
    O232    O    0.51749   0.83460   0.61870   1.000
    O233    O    0.48251   0.16540   0.61870   1.000
    O234    O    0.76749   0.41540   0.86870   1.000
    O235    O    0.73251   0.08460   0.86870   1.000
    H236    H    0.97460   0.62920   0.61410   1.000
    H237    H    0.27540   0.87920   0.86410   1.000
    H238    H    0.22460   0.62080   0.86410   1.000
    H239    H    0.52540   0.37080   0.11410   1.000
    H240    H    0.47460   0.62920   0.11410   1.000
    H241    H    0.77540   0.87920   0.36410   1.000
    H242    H    0.72460   0.62080   0.36410   1.000
    H243    H    0.02540   0.87080   0.11410   1.000
    H244    H    0.97460   0.12920   0.11410   1.000
    H245    H    0.27540   0.37920   0.36410   1.000
    H246    H    0.22460   0.12080   0.36410   1.000
    H247    H    0.52540   0.87080   0.61410   1.000
    H248    H    0.47460   0.12920   0.61410   1.000
    H249    H    0.77540   0.37920   0.86410   1.000
    H250    H    0.72460   0.12080   0.86410   1.000
    O251    O    0.15171   0.99850   0.83270   1.000
    O252    O    0.09829   0.24850   0.08270   1.000
    O253    O    0.40171   0.25150   0.08270   1.000
    O254    O    0.34829   0.00150   0.33270   1.000
    O255    O    0.65171   0.99850   0.33270   1.000
    O256    O    0.59829   0.24850   0.58270   1.000
    O257    O    0.90171   0.25150   0.58270   1.000
    O258    O    0.84829   0.50150   0.33270   1.000
    O259    O    0.15171   0.49850   0.33270   1.000
    O260    O    0.09829   0.74850   0.58270   1.000
    O261    O    0.40171   0.75150   0.58270   1.000
    O262    O    0.34829   0.50150   0.83270   1.000
    O263    O    0.65171   0.49850   0.83270   1.000
    O264    O    0.59829   0.74850   0.08270   1.000
    O265    O    0.90171   0.75150   0.08270   1.000
    O266    O    0.18214   0.94570   0.78430   1.000
    O267    O    0.06786   0.19570   0.03430   1.000
    O268    O    0.43214   0.30430   0.03430   1.000
    O269    O    0.31786   0.05430   0.28430   1.000
    O270    O    0.68214   0.94570   0.28430   1.000
    O271    O    0.56786   0.19570   0.53430   1.000
    O272    O    0.93214   0.30430   0.53430   1.000
    O273    O    0.81786   0.55430   0.28430   1.000
    O274    O    0.18214   0.44570   0.28430   1.000
    O275    O    0.06786   0.69570   0.53430   1.000
    O276    O    0.43214   0.80430   0.53430   1.000
    O277    O    0.31786   0.55430   0.78430   1.000
    O278    O    0.68214   0.44570   0.78430   1.000
    O279    O    0.56786   0.69570   0.03430   1.000
    O280    O    0.93214   0.80430   0.03430   1.000
    O281    O    0.18363   0.94710   0.48230   1.000
    O282    O    0.06637   0.19710   0.73230   1.000
    O283    O    0.43363   0.30290   0.73230   1.000
    O284    O    0.31637   0.05290   0.98230   1.000
    O285    O    0.68363   0.94710   0.98230   1.000
    O286    O    0.56637   0.19710   0.23230   1.000
    O287    O    0.93363   0.30290   0.23230   1.000
    O288    O    0.81637   0.55290   0.98230   1.000
    O289    O    0.18363   0.44710   0.98230   1.000
    O290    O    0.06637   0.69710   0.23230   1.000
    O291    O    0.43363   0.80290   0.23230   1.000
    O292    O    0.31637   0.55290   0.48230   1.000
    O293    O    0.68363   0.44710   0.48230   1.000
    O294    O    0.56637   0.69710   0.73230   1.000
    O295    O    0.93363   0.80290   0.73230   1.000
    O296    O    0.84782   0.51410   0.42510   1.000
    O297    O    0.40218   0.76410   0.67510   1.000
    O298    O    0.09782   0.73590   0.67510   1.000
    O299    O    0.65218   0.48590   0.92510   1.000
    O300    O    0.34782   0.51410   0.92510   1.000
    O301    O    0.90218   0.76410   0.17510   1.000
    O302    O    0.59782   0.73590   0.17510   1.000
    O303    O    0.15218   0.98590   0.92510   1.000
    O304    O    0.84782   0.01410   0.92510   1.000
    O305    O    0.40218   0.26410   0.17510   1.000
    O306    O    0.09782   0.23590   0.17510   1.000
    O307    O    0.65218   0.98590   0.42510   1.000
    O308    O    0.34782   0.01410   0.42510   1.000
    O309    O    0.90218   0.26410   0.67510   1.000
    O310    O    0.59782   0.23590   0.67510   1.000
    O311    O    0.99081   0.81020   0.26150   1.000
    O312    O    0.25919   0.06020   0.51150   1.000
    O313    O    0.24081   0.43980   0.51150   1.000
    O314    O    0.50919   0.18980   0.76150   1.000
    O315    O    0.49081   0.81020   0.76150   1.000
    O316    O    0.75919   0.06020   0.01150   1.000
    O317    O    0.74081   0.43980   0.01150   1.000
    O318    O    0.00919   0.68980   0.76150   1.000
    O319    O    0.99081   0.31020   0.76150   1.000
    O320    O    0.25919   0.56020   0.01150   1.000
    O321    O    0.24081   0.93980   0.01150   1.000
    O322    O    0.50919   0.68980   0.26150   1.000
    O323    O    0.49081   0.31020   0.26150   1.000
    O324    O    0.75919   0.56020   0.51150   1.000
    O325    O    0.74081   0.93980   0.51150   1.000
    O326    O    0.92151   0.66100   0.66810   1.000
    O327    O    0.32849   0.91100   0.91810   1.000
    O328    O    0.17151   0.58900   0.91810   1.000
    O329    O    0.57849   0.33900   0.16810   1.000
    O330    O    0.42151   0.66100   0.16810   1.000
    O331    O    0.82849   0.91100   0.41810   1.000
    O332    O    0.67151   0.58900   0.41810   1.000
    O333    O    0.07849   0.83900   0.16810   1.000
    O334    O    0.92151   0.16100   0.16810   1.000
    O335    O    0.32849   0.41100   0.41810   1.000
    O336    O    0.17151   0.08900   0.41810   1.000
    O337    O    0.57849   0.83900   0.66810   1.000
    O338    O    0.42151   0.16100   0.66810   1.000
    O339    O    0.82849   0.41100   0.91810   1.000
    O340    O    0.67151   0.08900   0.91810   1.000
    O341    O    0.15282   0.99390   0.42950   1.000
    O342    O    0.09718   0.24390   0.67950   1.000
    O343    O    0.40282   0.25610   0.67950   1.000
    O344    O    0.34718   0.00610   0.92950   1.000
    O345    O    0.65282   0.99390   0.92950   1.000
    O346    O    0.59718   0.24390   0.17950   1.000
    O347    O    0.90282   0.25610   0.17950   1.000
    O348    O    0.84718   0.50610   0.92950   1.000
    O349    O    0.15282   0.49390   0.92950   1.000
    O350    O    0.09718   0.74390   0.17950   1.000
    O351    O    0.40282   0.75610   0.17950   1.000
    O352    O    0.34718   0.50610   0.42950   1.000
    O353    O    0.65282   0.49390   0.42950   1.000
    O354    O    0.59718   0.74390   0.67950   1.000
    O355    O    0.90282   0.75610   0.67950   1.000
    O356    O    0.81762   0.58030   0.45740   1.000
    C357    C    0.84360   0.53460   0.96570   1.000
    C358    C    0.15640   0.46540   0.96570   1.000
    C359    C    0.09360   0.71540   0.21570   1.000
    C360    C    0.40640   0.78460   0.21570   1.000
    C361    C    0.34360   0.53460   0.46570   1.000
    C362    C    0.65640   0.46540   0.46570   1.000
    C363    C    0.59360   0.71540   0.71570   1.000
    C364    C    0.90640   0.78460   0.71570   1.000
    C365    C    0.11700   0.90390   0.74860   1.000
    C366    C    0.13300   0.15390   0.99860   1.000
    O367    O    0.18238   0.91970   0.95740   1.000
    O368    O    0.81762   0.08030   0.95740   1.000
    O369    O    0.43238   0.33030   0.20740   1.000
    O370    O    0.06762   0.16970   0.20740   1.000
    O371    O    0.68238   0.91970   0.45740   1.000
    O372    O    0.31762   0.08030   0.45740   1.000
    O373    O    0.93238   0.33030   0.70740   1.000
    O374    O    0.56762   0.16970   0.70740   1.000
    O375    O    0.07862   0.84940   0.59370   1.000
    O376    O    0.17138   0.09940   0.84370   1.000
    O377    O    0.32862   0.40060   0.84370   1.000
    O378    O    0.42138   0.15060   0.09370   1.000
    O379    O    0.57862   0.84940   0.09370   1.000
    O380    O    0.67138   0.09940   0.34370   1.000
    O381    O    0.82862   0.40060   0.34370   1.000
    O382    O    0.92138   0.65060   0.09370   1.000
    O383    O    0.07862   0.34940   0.09370   1.000
    O384    O    0.17138   0.59940   0.34370   1.000
    O385    O    0.32862   0.90060   0.34370   1.000
    O386    O    0.42138   0.65060   0.59370   1.000
    O387    O    0.57862   0.34940   0.59370   1.000
    O388    O    0.67138   0.59940   0.84370   1.000
    O389    O    0.82862   0.90060   0.84370   1.000
    O390    O    0.96768   0.63420   0.71000   1.000
    O391    O    0.28232   0.88420   0.96000   1.000
    O392    O    0.21768   0.61580   0.96000   1.000
    O393    O    0.53232   0.36580   0.21000   1.000
    O394    O    0.46768   0.63420   0.21000   1.000
    O395    O    0.78232   0.88420   0.46000   1.000
    O396    O    0.71768   0.61580   0.46000   1.000
    O397    O    0.03232   0.86580   0.21000   1.000
    O398    O    0.96768   0.13420   0.21000   1.000
    O399    O    0.28232   0.38420   0.46000   1.000
    O400    O    0.21768   0.11580   0.46000   1.000
    O401    O    0.53232   0.86580   0.71000   1.000
    O402    O    0.46768   0.13420   0.71000   1.000
    O403    O    0.78232   0.38420   0.96000   1.000
    O404    O    0.71768   0.11580   0.96000   1.000
    O405    O    0.03407   0.75890   0.70180   1.000
    O406    O    0.21593   0.00890   0.95180   1.000
    O407    O    0.28407   0.49110   0.95180   1.000
    O408    O    0.46593   0.24110   0.20180   1.000
    O409    O    0.53407   0.75890   0.20180   1.000
    O410    O    0.71593   0.00890   0.45180   1.000
    O411    O    0.78407   0.49110   0.45180   1.000
    O412    O    0.96593   0.74110   0.20180   1.000
    O413    O    0.03407   0.25890   0.20180   1.000
    O414    O    0.21593   0.50890   0.45180   1.000
    O415    O    0.28407   0.99110   0.45180   1.000
    O416    O    0.46593   0.74110   0.70180   1.000
    O417    O    0.53407   0.25890   0.70180   1.000
    O418    O    0.71593   0.50890   0.95180   1.000
    O419    O    0.78407   0.99110   0.95180   1.000
    H420    H    0.04830   0.76100   0.73140   1.000
    H421    H    0.20170   0.01100   0.98140   1.000
    H422    H    0.29830   0.48900   0.98140   1.000
    H423    H    0.45170   0.23900   0.23140   1.000
    H424    H    0.54830   0.76100   0.23140   1.000
    H425    H    0.70170   0.01100   0.48140   1.000
    H426    H    0.79830   0.48900   0.48140   1.000
    H427    H    0.95170   0.73900   0.23140   1.000
    H428    H    0.04830   0.26100   0.23140   1.000
    H429    H    0.20170   0.51100   0.48140   1.000
    H430    H    0.29830   0.98900   0.48140   1.000
    H431    H    0.45170   0.73900   0.73140   1.000
    H432    H    0.54830   0.26100   0.73140   1.000
    H433    H    0.70170   0.51100   0.98140   1.000
    H434    H    0.79830   0.98900   0.98140   1.000
    O435    O    0.99135   0.81870   0.49660   1.000
    O436    O    0.25865   0.06870   0.74660   1.000
    O437    O    0.24135   0.43130   0.74660   1.000
    O438    O    0.50865   0.18130   0.99660   1.000
    O439    O    0.49135   0.81870   0.99660   1.000
    O440    O    0.75865   0.06870   0.24660   1.000
    O441    O    0.74135   0.43130   0.24660   1.000
    O442    O    0.00865   0.68130   0.99660   1.000
    O443    O    0.99135   0.31870   0.99660   1.000
    O444    O    0.25865   0.56870   0.24660   1.000
    O445    O    0.24135   0.93130   0.24660   1.000
    O446    O    0.50865   0.68130   0.49660   1.000
    O447    O    0.49135   0.31870   0.49660   1.000
    O448    O    0.75865   0.56870   0.74660   1.000
    O449    O    0.74135   0.93130   0.74660   1.000
    H450    H    0.88430   0.38130   0.77100   1.000
    H451    H    0.61570   0.11870   0.77100   1.000
    N452    N    0.92820   0.57150   0.76420   1.000
    N453    N    0.32180   0.82150   0.01420   1.000
    N454    N    0.17820   0.67850   0.01420   1.000
    N455    N    0.57180   0.42850   0.26420   1.000
    N456    N    0.42820   0.57150   0.26420   1.000
    N457    N    0.82180   0.82150   0.51420   1.000
    N458    N    0.67820   0.67850   0.51420   1.000
    N459    N    0.07180   0.92850   0.26420   1.000
    N460    N    0.92820   0.07150   0.26420   1.000
    N461    N    0.32180   0.32150   0.51420   1.000
    N462    N    0.17820   0.17850   0.51420   1.000
    N463    N    0.57180   0.92850   0.76420   1.000
    O464    O    0.06680   0.67280   0.04280   1.000
    O465    O    0.68320   0.42280   0.29280   1.000
    O466    O    0.31680   0.57720   0.29280   1.000
    O467    O    0.93320   0.82720   0.54280   1.000
    O468    O    0.56680   0.67280   0.54280   1.000
    O469    O    0.18320   0.92280   0.29280   1.000
    O470    O    0.81680   0.07720   0.29280   1.000
    O471    O    0.43320   0.32720   0.54280   1.000
    O472    O    0.06680   0.17280   0.54280   1.000
    O473    O    0.68320   0.92280   0.79280   1.000
    O474    O    0.31680   0.07720   0.79280   1.000
    O475    O    0.93320   0.32720   0.04280   1.000
    O476    O    0.56680   0.17280   0.04280   1.000
    O477    O    0.00830   0.72730   0.27480   1.000
    O478    O    0.24170   0.97730   0.52480   1.000
    O479    O    0.25830   0.52270   0.52480   1.000
    O480    O    0.49170   0.27270   0.77480   1.000
    O481    O    0.50830   0.72730   0.77480   1.000
    O482    O    0.74170   0.97730   0.02480   1.000
    O483    O    0.75830   0.52270   0.02480   1.000
    O484    O    0.99170   0.77270   0.77480   1.000
    O485    O    0.00830   0.22730   0.77480   1.000
    O486    O    0.24170   0.47730   0.02480   1.000
    O487    O    0.25830   0.02270   0.02480   1.000
    O488    O    0.49170   0.77270   0.27480   1.000
    O489    O    0.50830   0.22730   0.27480   1.000
    O490    O    0.74170   0.47730   0.52480   1.000
    O491    O    0.75830   0.02270   0.52480   1.000
    O492    O    0.07756   0.83690   0.68750   1.000
    O493    O    0.17244   0.08690   0.93750   1.000
    O494    O    0.32756   0.41310   0.93750   1.000
    O495    O    0.42244   0.16310   0.18750   1.000
    O496    O    0.57756   0.83690   0.18750   1.000
    O497    O    0.67244   0.08690   0.43750   1.000
    O498    O    0.82756   0.41310   0.43750   1.000
    O499    O    0.92244   0.66310   0.18750   1.000
    O500    O    0.07756   0.33690   0.18750   1.000
    O501    O    0.17244   0.58690   0.43750   1.000
    O502    O    0.32756   0.91310   0.43750   1.000
    O503    O    0.42244   0.66310   0.68750   1.000
    O504    O    0.57756   0.33690   0.68750   1.000
    O505    O    0.67244   0.58690   0.93750   1.000
    O506    O    0.82756   0.91310   0.93750   1.000
    O507    O    0.92250   0.67410   0.57010   1.000
    O508    O    0.32750   0.92410   0.82010   1.000
    O509    O    0.17250   0.57590   0.82010   1.000
    O510    O    0.57750   0.32590   0.07010   1.000
    O511    O    0.42250   0.67410   0.07010   1.000
    O512    O    0.82750   0.92410   0.32010   1.000
    O513    O    0.67250   0.57590   0.32010   1.000
    O514    O    0.07750   0.82590   0.07010   1.000
    O515    O    0.92250   0.17410   0.07010   1.000
    O516    O    0.32750   0.42410   0.32010   1.000
    O517    O    0.17250   0.07590   0.32010   1.000
    O518    O    0.57750   0.82590   0.57010   1.000
    O519    O    0.42250   0.17410   0.57010   1.000
    O520    O    0.82750   0.42410   0.82010   1.000
    O521    O    0.67250   0.07590   0.82010   1.000
    O522    O    0.03056   0.85600   0.73090   1.000
    O523    O    0.21944   0.10600   0.98090   1.000
    O524    O    0.28056   0.39400   0.98090   1.000
    O525    O    0.46944   0.14400   0.23090   1.000
    O526    O    0.53056   0.85600   0.23090   1.000
    O527    O    0.71944   0.10600   0.48090   1.000
    O528    O    0.78056   0.39400   0.48090   1.000
    O529    O    0.96944   0.64400   0.23090   1.000
    O530    O    0.03056   0.35600   0.23090   1.000
    O531    O    0.21944   0.60600   0.48090   1.000
    O532    O    0.28056   0.89400   0.48090   1.000
    O533    O    0.46944   0.64400   0.73090   1.000
    O534    O    0.53056   0.35600   0.73090   1.000
    O535    O    0.71944   0.60600   0.98090   1.000
    O536    O    0.78056   0.89400   0.98090   1.000
    C537    C    0.93670   0.63550   0.70090   1.000
    C538    C    0.31330   0.88550   0.95090   1.000
    C539    C    0.18670   0.61450   0.95090   1.000
    C540    C    0.56330   0.36450   0.20090   1.000
    C541    C    0.43670   0.63550   0.20090   1.000
    C542    C    0.81330   0.88550   0.45090   1.000
    C543    C    0.68670   0.61450   0.45090   1.000
    C544    C    0.06330   0.86450   0.20090   1.000
    C545    C    0.93670   0.13550   0.20090   1.000
    C546    C    0.31330   0.38550   0.45090   1.000
    C547    C    0.18670   0.11450   0.45090   1.000
    C548    C    0.56330   0.86450   0.70090   1.000
    C549    C    0.43670   0.13550   0.70090   1.000
    C550    C    0.81330   0.38550   0.95090   1.000
    C551    C    0.68670   0.11450   0.95090   1.000
    O552    O    0.00760   0.73320   0.48470   1.000
    O553    O    0.24240   0.98320   0.73470   1.000
    O554    O    0.25760   0.51680   0.73470   1.000
    O555    O    0.49240   0.26680   0.98470   1.000
    O556    O    0.50760   0.73320   0.98470   1.000
    O557    O    0.74240   0.98320   0.23470   1.000
    O558    O    0.75760   0.51680   0.23470   1.000
    O559    O    0.99240   0.76680   0.98470   1.000
    O560    O    0.00760   0.23320   0.98470   1.000
    O561    O    0.24240   0.48320   0.23470   1.000
    O562    O    0.25760   0.01680   0.23470   1.000
    O563    O    0.49240   0.76680   0.48470   1.000
    O564    O    0.50760   0.23320   0.48470   1.000
    O565    O    0.74240   0.48320   0.73470   1.000
    O566    O    0.75760   0.01680   0.73470   1.000
    C567    C    0.87620   0.57840   0.46680   1.000
    C568    C    0.37380   0.82840   0.71680   1.000
    C569    C    0.12620   0.67160   0.71680   1.000
    C570    C    0.62380   0.42160   0.96680   1.000
    C571    C    0.37620   0.57840   0.96680   1.000
    C572    C    0.87380   0.82840   0.21680   1.000
    C573    C    0.62620   0.67160   0.21680   1.000
    C574    C    0.12380   0.92160   0.96680   1.000
    C575    C    0.87620   0.07840   0.96680   1.000
    C576    C    0.37380   0.32840   0.21680   1.000
    C577    C    0.12620   0.17160   0.21680   1.000
    C578    C    0.62380   0.92160   0.46680   1.000
    C579    C    0.37620   0.07840   0.46680   1.000
    C580    C    0.87380   0.32840   0.71680   1.000
    C581    C    0.62620   0.17160   0.71680   1.000
    C582    C    0.84390   0.55410   0.80290   1.000
    C583    C    0.40610   0.80410   0.05290   1.000
    C584    C    0.09390   0.69590   0.05290   1.000
    C585    C    0.65610   0.44590   0.30290   1.000
    C586    C    0.34390   0.55410   0.30290   1.000
    C587    C    0.90610   0.80410   0.55290   1.000
    C588    C    0.59390   0.69590   0.55290   1.000
    C589    C    0.15610   0.94590   0.30290   1.000
    C590    C    0.84390   0.05410   0.30290   1.000
    C591    C    0.40610   0.30410   0.55290   1.000
    C592    C    0.09390   0.19590   0.55290   1.000
    C593    C    0.65610   0.94590   0.80290   1.000
    C594    C    0.34390   0.05410   0.80290   1.000
    C595    C    0.90610   0.30410   0.05290   1.000
    C596    C    0.59390   0.19590   0.05290   1.000
    C597    C    0.91460   0.60450   0.73350   1.000
    C598    C    0.33540   0.85450   0.98350   1.000
    C599    C    0.16460   0.64550   0.98350   1.000
    C600    C    0.58540   0.39550   0.23350   1.000
    C601    C    0.41460   0.60450   0.23350   1.000
    C602    C    0.83540   0.85450   0.48350   1.000
    C603    C    0.66460   0.64550   0.48350   1.000
    C604    C    0.08540   0.89550   0.23350   1.000
    C605    C    0.91460   0.10450   0.23350   1.000
    C606    C    0.33540   0.35450   0.48350   1.000
    C607    C    0.16460   0.14550   0.48350   1.000
    C608    C    0.58540   0.89550   0.73350   1.000
    C609    C    0.41460   0.10450   0.73350   1.000
    C610    C    0.83540   0.35450   0.98350   1.000
    C611    C    0.66460   0.14550   0.98350   1.000
    C612    C    0.08220   0.89520   0.75050   1.000
    C613    C    0.16780   0.14520   0.00050   1.000
    C614    C    0.33220   0.35480   0.00050   1.000
    C615    C    0.41780   0.10480   0.25050   1.000
    C616    C    0.58220   0.89520   0.25050   1.000
    C617    C    0.66780   0.14520   0.50050   1.000
    C618    C    0.83220   0.35480   0.50050   1.000
    C619    C    0.91780   0.60480   0.25050   1.000
    C620    C    0.08220   0.39520   0.25050   1.000
    C621    C    0.16780   0.64520   0.50050   1.000
    C622    C    0.33220   0.85480   0.50050   1.000
    C623    C    0.41780   0.60480   0.75050   1.000
    C624    C    0.58220   0.39520   0.75050   1.000
    C625    C    0.66780   0.64520   0.00050   1.000
    C626    C    0.83220   0.85480   0.00050   1.000
    O627    O    0.96898   0.66010   0.52340   1.000
    O628    O    0.28102   0.91010   0.77340   1.000
    O629    O    0.21898   0.58990   0.77340   1.000
    O630    O    0.53102   0.33990   0.02340   1.000
    O631    O    0.46898   0.66010   0.02340   1.000
    O632    O    0.78102   0.91010   0.27340   1.000
    O633    O    0.71898   0.58990   0.27340   1.000
    O634    O    0.03102   0.83990   0.02340   1.000
    O635    O    0.96898   0.16010   0.02340   1.000
    O636    O    0.28102   0.41010   0.27340   1.000
    O637    O    0.21898   0.08990   0.27340   1.000
    O638    O    0.53102   0.83990   0.52340   1.000
    O639    O    0.46898   0.16010   0.52340   1.000
    O640    O    0.78102   0.41010   0.77340   1.000
    O641    O    0.71898   0.08990   0.77340   1.000
    C642    C    0.15470   0.96400   0.80120   1.000
    C643    C    0.09530   0.21400   0.05120   1.000
    C644    C    0.40470   0.28600   0.05120   1.000
    C645    C    0.34530   0.03600   0.30120   1.000
    C646    C    0.65470   0.96400   0.30120   1.000
    C647    C    0.59530   0.21400   0.55120   1.000
    C648    C    0.90470   0.28600   0.55120   1.000
    C649    C    0.84530   0.53600   0.30120   1.000
    C650    C    0.15470   0.46400   0.30120   1.000
    C651    C    0.09530   0.71400   0.55120   1.000
    C652    C    0.40470   0.78600   0.55120   1.000
    C653    C    0.34530   0.53600   0.80120   1.000
    C654    C    0.65470   0.46400   0.80120   1.000
    C655    C    0.59530   0.71400   0.05120   1.000
    C656    C    0.90470   0.78600   0.05120   1.000
    C657    C    0.06310   0.87880   0.56510   1.000
    C658    C    0.18690   0.12880   0.81510   1.000
    C659    C    0.31310   0.37120   0.81510   1.000
    C660    C    0.43690   0.12120   0.06510   1.000
    C661    C    0.56310   0.87880   0.06510   1.000
    C662    C    0.68690   0.12880   0.31510   1.000
    C663    C    0.81310   0.37120   0.31510   1.000
    C664    C    0.93690   0.62120   0.06510   1.000
    C665    C    0.06310   0.37880   0.06510   1.000
    C666    C    0.18690   0.62880   0.31510   1.000
    C667    C    0.31310   0.87120   0.31510   1.000
    C668    C    0.43690   0.62120   0.56510   1.000
    C669    C    0.56310   0.37880   0.56510   1.000
    C670    C    0.68690   0.62880   0.81510   1.000
    C671    C    0.81310   0.87120   0.81510   1.000
    C672    C    0.06170   0.85920   0.72040   1.000
    C673    C    0.18830   0.10920   0.97040   1.000
    C674    C    0.31170   0.39080   0.97040   1.000
    C675    C    0.43830   0.14080   0.22040   1.000
    C676    C    0.56170   0.85920   0.22040   1.000
    C677    C    0.68830   0.10920   0.47040   1.000
    C678    C    0.81170   0.39080   0.47040   1.000
    C679    C    0.93830   0.64080   0.22040   1.000
    C680    C    0.06170   0.35920   0.22040   1.000
    C681    C    0.18830   0.60920   0.47040   1.000
    C682    C    0.31170   0.89080   0.47040   1.000
    C683    C    0.43830   0.64080   0.72040   1.000
    C684    C    0.56170   0.35920   0.72040   1.000
    C685    C    0.68830   0.60920   0.97040   1.000
    C686    C    0.81170   0.89080   0.97040   1.000
    C687    C    0.84470   0.55540   0.44850   1.000
    C688    C    0.40530   0.80540   0.69850   1.000
    C689    C    0.09470   0.69460   0.69850   1.000
    C690    C    0.65530   0.44460   0.94850   1.000
    C691    C    0.34470   0.55540   0.94850   1.000
    C692    C    0.90530   0.80540   0.19850   1.000
    C693    C    0.59470   0.69460   0.19850   1.000
    C694    C    0.15530   0.94460   0.94850   1.000
    C695    C    0.84470   0.05540   0.94850   1.000
    C696    C    0.40530   0.30540   0.19850   1.000
    C697    C    0.09470   0.19460   0.19850   1.000
    C698    C    0.65530   0.94460   0.44850   1.000
    C699    C    0.34470   0.05540   0.44850   1.000
    C700    C    0.90530   0.30540   0.69850   1.000
    C701    C    0.59470   0.19460   0.69850   1.000
    C702    C    0.15640   0.96540   0.46570   1.000
    C703    C    0.09360   0.21540   0.71570   1.000
    C704    C    0.40640   0.28460   0.71570   1.000
    C705    C    0.34360   0.03460   0.96570   1.000
    C706    C    0.65640   0.96540   0.96570   1.000
    C707    C    0.59360   0.21540   0.21570   1.000
    C708    C    0.90640   0.28460   0.21570   1.000
    C709    C    0.36700   0.34610   0.99860   1.000
    C710    C    0.38300   0.09610   0.24860   1.000
    C711    C    0.61700   0.90390   0.24860   1.000
    C712    C    0.63300   0.15390   0.49860   1.000
    C713    C    0.86700   0.34610   0.49860   1.000
    C714    C    0.88300   0.59610   0.24860   1.000
    C715    C    0.11700   0.40390   0.24860   1.000
    C716    C    0.13300   0.65390   0.49860   1.000
    C717    C    0.36700   0.84610   0.49860   1.000
    C718    C    0.38300   0.59610   0.74860   1.000
    C719    C    0.61700   0.40390   0.74860   1.000
    C720    C    0.63300   0.65390   0.99860   1.000
    C721    C    0.86700   0.84610   0.99860   1.000
    H722    H    0.13330   0.88840   0.72790   1.000
    H723    H    0.11670   0.13840   0.97790   1.000
    H724    H    0.38330   0.36160   0.97790   1.000
    H725    H    0.36670   0.11160   0.22790   1.000
    H726    H    0.63330   0.88840   0.22790   1.000
    H727    H    0.61670   0.13840   0.47790   1.000
    H728    H    0.88330   0.36160   0.47790   1.000
    H729    H    0.86670   0.61160   0.22790   1.000
    H730    H    0.13330   0.38840   0.22790   1.000
    H731    H    0.11670   0.63840   0.47790   1.000
    H732    H    0.38330   0.86160   0.47790   1.000
    H733    H    0.36670   0.61160   0.72790   1.000
    H734    H    0.63330   0.38840   0.72790   1.000
    H735    H    0.61670   0.63840   0.97790   1.000
    H736    H    0.88330   0.86160   0.97790   1.000
    C737    C    0.99810   0.78640   0.41900   1.000
    C738    C    0.25190   0.03640   0.66900   1.000
    C739    C    0.24810   0.46360   0.66900   1.000
    C740    C    0.50190   0.21360   0.91900   1.000
    C741    C    0.49810   0.78640   0.91900   1.000
    C742    C    0.75190   0.03640   0.16900   1.000
    C743    C    0.74810   0.46360   0.16900   1.000
    C744    C    0.00190   0.71360   0.91900   1.000
    C745    C    0.99810   0.28640   0.91900   1.000
    C746    C    0.25190   0.53640   0.16900   1.000
    C747    C    0.24810   0.96360   0.16900   1.000
    C748    C    0.50190   0.71360   0.41900   1.000
    C749    C    0.49810   0.28640   0.41900   1.000
    C750    C    0.75190   0.53640   0.66900   1.000
    C751    C    0.74810   0.96360   0.66900   1.000
    N752    N    0.09414   0.96810   0.47350   1.000
    N753    N    0.15586   0.21810   0.72350   1.000
    N754    N    0.34414   0.28190   0.72350   1.000
    N755    N    0.40586   0.03190   0.97350   1.000
    N756    N    0.59414   0.96810   0.97350   1.000
    N757    N    0.65586   0.21810   0.22350   1.000
    N758    N    0.84414   0.28190   0.22350   1.000
    N759    N    0.90586   0.53190   0.97350   1.000
    N760    N    0.09414   0.46810   0.97350   1.000
    N761    N    0.15586   0.71810   0.22350   1.000
    N762    N    0.34414   0.78190   0.22350   1.000
    N763    N    0.40586   0.53190   0.47350   1.000
    N764    N    0.59414   0.46810   0.47350   1.000
    N765    N    0.65586   0.71810   0.72350   1.000
    N766    N    0.84414   0.78190   0.72350   1.000
    N767    N    0.06841   0.94440   0.50170   1.000
    N768    N    0.18159   0.19440   0.75170   1.000
    N769    N    0.31841   0.30560   0.75170   1.000
    N770    N    0.43159   0.05560   0.00170   1.000
    N771    N    0.56841   0.94440   0.00170   1.000
    N772    N    0.68159   0.19440   0.25170   1.000
    N773    N    0.81841   0.30560   0.25170   1.000
    N774    N    0.93159   0.55560   0.00170   1.000
    N775    N    0.06841   0.44440   0.00170   1.000
    N776    N    0.18159   0.69440   0.25170   1.000
    N777    N    0.31841   0.80560   0.25170   1.000
    N778    N    0.43159   0.55560   0.50170   1.000
    N779    N    0.56841   0.44440   0.50170   1.000
    N780    N    0.68159   0.69440   0.75170   1.000
    N781    N    0.81841   0.80560   0.75170   1.000
    C782    C    0.08464   0.91170   0.53550   1.000
    C783    C    0.16536   0.16170   0.78550   1.000
    C784    C    0.33464   0.33830   0.78550   1.000
    C785    C    0.41536   0.08830   0.03550   1.000
    C786    C    0.58464   0.91170   0.03550   1.000
    C787    C    0.66536   0.16170   0.28550   1.000
    C788    C    0.83464   0.33830   0.28550   1.000
    C789    C    0.91536   0.58830   0.03550   1.000
    C790    C    0.08464   0.41170   0.03550   1.000
    C791    C    0.16536   0.66170   0.28550   1.000
    C792    C    0.33464   0.83830   0.28550   1.000
    C793    C    0.41536   0.58830   0.53550   1.000
    C794    C    0.58464   0.41170   0.53550   1.000
    C795    C    0.66536   0.66170   0.78550   1.000
    C796    C    0.83464   0.83830   0.78550   1.000
    C797    C    0.12039   0.91520   0.52810   1.000
    C798    C    0.12961   0.16520   0.77810   1.000
    C799    C    0.37039   0.33480   0.77810   1.000
    C800    C    0.37961   0.08480   0.02810   1.000
    C801    C    0.62039   0.91520   0.02810   1.000
    C802    C    0.62961   0.16520   0.27810   1.000
    C803    C    0.87039   0.33480   0.27810   1.000
    C804    C    0.87961   0.58480   0.02810   1.000
    C805    C    0.12039   0.41520   0.02810   1.000
    C806    C    0.12961   0.66520   0.27810   1.000
    C807    C    0.37039   0.83480   0.27810   1.000
    C808    C    0.37961   0.58480   0.52810   1.000
    C809    C    0.62039   0.41520   0.52810   1.000
    C810    C    0.62961   0.66520   0.77810   1.000
    C811    C    0.87039   0.83480   0.77810   1.000
    H812    H    0.13740   0.89730   0.54580   1.000
    H813    H    0.11260   0.14730   0.79580   1.000
    H814    H    0.38740   0.35270   0.79580   1.000
    H815    H    0.36260   0.10270   0.04580   1.000
    H816    H    0.63740   0.89730   0.04580   1.000
    H817    H    0.61260   0.14730   0.29580   1.000
    H818    H    0.88740   0.35270   0.29580   1.000
    H819    H    0.86260   0.60270   0.04580   1.000
    H820    H    0.13740   0.39730   0.04580   1.000
    H821    H    0.11260   0.64730   0.29580   1.000
    H822    H    0.38740   0.85270   0.29580   1.000
    H823    H    0.36260   0.60270   0.54580   1.000
    H824    H    0.63740   0.39730   0.54580   1.000
    H825    H    0.61260   0.64730   0.79580   1.000
    H826    H    0.88740   0.85270   0.79580   1.000
    C827    C    0.12626   0.95000   0.48980   1.000
    C828    C    0.12374   0.20000   0.73980   1.000
    C829    C    0.37626   0.30000   0.73980   1.000
    C830    C    0.37374   0.05000   0.98980   1.000
    C831    C    0.62626   0.95000   0.98980   1.000
    C832    C    0.62374   0.20000   0.23980   1.000
    C833    C    0.87626   0.30000   0.23980   1.000
    C834    C    0.87374   0.55000   0.98980   1.000
    C835    C    0.12626   0.45000   0.98980   1.000
    C836    C    0.12374   0.70000   0.23980   1.000
    C837    C    0.37626   0.80000   0.23980   1.000
    C838    C    0.37374   0.55000   0.48980   1.000
    C839    C    0.62626   0.45000   0.48980   1.000
    C840    C    0.62374   0.70000   0.73980   1.000
    C841    C    0.87626   0.80000   0.73980   1.000
    N842    N    0.09280   0.95190   0.80460   1.000
    N843    N    0.15720   0.20190   0.05460   1.000
    N844    N    0.34280   0.29810   0.05460   1.000
    N845    N    0.40720   0.04810   0.30460   1.000
    N846    N    0.59280   0.95190   0.30460   1.000
    N847    N    0.65720   0.20190   0.55460   1.000
    N848    N    0.84280   0.29810   0.55460   1.000
    N849    N    0.90720   0.54810   0.30460   1.000
    N850    N    0.09280   0.45190   0.30460   1.000
    N851    N    0.15720   0.70190   0.55460   1.000
    N852    N    0.34280   0.79810   0.55460   1.000
    N853    N    0.40720   0.54810   0.80460   1.000
    N854    N    0.59280   0.45190   0.80460   1.000
    N855    N    0.65720   0.70190   0.05460   1.000
    N856    N    0.84280   0.79810   0.05460   1.000
    C857    C    0.99880   0.77880   0.47170   1.000
    C858    C    0.25120   0.02880   0.72170   1.000
    C859    C    0.24880   0.47120   0.72170   1.000
    C860    C    0.50120   0.22120   0.97170   1.000
    C861    C    0.49880   0.77880   0.97170   1.000
    C862    C    0.75120   0.02880   0.22170   1.000
    C863    C    0.74880   0.47120   0.22170   1.000
    C864    C    0.00120   0.72120   0.97170   1.000
    C865    C    0.99880   0.27880   0.97170   1.000
    C866    C    0.25120   0.52880   0.22170   1.000
    C867    C    0.24880   0.97120   0.22170   1.000
    C868    C    0.50120   0.72120   0.47170   1.000
    C869    C    0.49880   0.27880   0.47170   1.000
    C870    C    0.75120   0.52880   0.72170   1.000
    C871    C    0.74880   0.97120   0.72170   1.000
    C872    C    0.87610   0.56950   0.77770   1.000
    C873    C    0.37390   0.81950   0.02770   1.000
    C874    C    0.12610   0.68050   0.02770   1.000
    C875    C    0.62390   0.43050   0.27770   1.000
    C876    C    0.37610   0.56950   0.27770   1.000
    C877    C    0.87390   0.81950   0.52770   1.000
    C878    C    0.62610   0.68050   0.52770   1.000
    C879    C    0.12390   0.93050   0.27770   1.000
    C880    C    0.87610   0.06950   0.27770   1.000
    C881    C    0.37390   0.31950   0.52770   1.000
    C882    C    0.12610   0.18050   0.52770   1.000
    C883    C    0.62390   0.93050   0.77770   1.000
    C884    C    0.37610   0.06950   0.77770   1.000
    C885    C    0.87390   0.31950   0.02770   1.000
    C886    C    0.62610   0.18050   0.02770   1.000
    N887    N    0.90510   0.54930   0.79150   1.000
    N888    N    0.34490   0.79930   0.04150   1.000
    N889    N    0.15510   0.70070   0.04150   1.000
    N890    N    0.59490   0.45070   0.29150   1.000
    N891    N    0.40510   0.54930   0.29150   1.000
    N892    N    0.84490   0.79930   0.54150   1.000
    N893    N    0.65510   0.70070   0.54150   1.000
    N894    N    0.09490   0.95070   0.29150   1.000
    N895    N    0.90510   0.04930   0.29150   1.000
    N896    N    0.34490   0.29930   0.54150   1.000
    N897    N    0.15510   0.20070   0.54150   1.000
    N898    N    0.59490   0.95070   0.79150   1.000
    N899    N    0.40510   0.04930   0.79150   1.000
    N900    N    0.84490   0.29930   0.04150   1.000
    N901    N    0.65510   0.20070   0.04150   1.000
    C902    C    0.88220   0.61430   0.50180   1.000
    C903    C    0.36780   0.86430   0.75180   1.000
    C904    C    0.13220   0.63570   0.75180   1.000
    C905    C    0.61780   0.38570   0.00180   1.000
    C906    C    0.38220   0.61430   0.00180   1.000
    C907    C    0.86780   0.86430   0.25180   1.000
    C908    C    0.63220   0.63570   0.25180   1.000
    C909    C    0.11780   0.88570   0.00180   1.000
    C910    C    0.88220   0.11430   0.00180   1.000
    C911    C    0.36780   0.36430   0.25180   1.000
    C912    C    0.13220   0.13570   0.25180   1.000
    C913    C    0.61780   0.88570   0.50180   1.000
    C914    C    0.38220   0.11430   0.50180   1.000
    C915    C    0.86780   0.36430   0.75180   1.000
    C916    C    0.63220   0.13570   0.75180   1.000
    H917    H    0.86570   0.63130   0.52100   1.000
    H918    H    0.38430   0.88130   0.77100   1.000
    H919    H    0.11570   0.61870   0.77100   1.000
    H920    H    0.63430   0.36870   0.02100   1.000
    H921    H    0.36570   0.63130   0.02100   1.000
    H922    H    0.88430   0.88130   0.27100   1.000
    H923    H    0.61570   0.61870   0.27100   1.000
    H924    H    0.13430   0.86870   0.02100   1.000
    H925    H    0.86570   0.13130   0.02100   1.000
    H926    H    0.38430   0.38130   0.27100   1.000
    H927    H    0.11570   0.11870   0.27100   1.000
    H928    H    0.63430   0.86870   0.52100   1.000
    H929    H    0.36570   0.13130   0.52100   1.000
    N930    N    0.42820   0.07150   0.76420   1.000
    N931    N    0.82180   0.32150   0.01420   1.000
    N932    N    0.67820   0.17850   0.01420   1.000
    N933    N    0.90750   0.56300   0.44950   1.000
    N934    N    0.34250   0.81300   0.69950   1.000
    N935    N    0.15750   0.68700   0.69950   1.000
    N936    N    0.59250   0.43700   0.94950   1.000
    N937    N    0.40750   0.56300   0.94950   1.000
    N938    N    0.84250   0.81300   0.19950   1.000
    N939    N    0.65750   0.68700   0.19950   1.000
    N940    N    0.09250   0.93700   0.94950   1.000
    N941    N    0.90750   0.06300   0.94950   1.000
    N942    N    0.34250   0.31300   0.19950   1.000
    N943    N    0.15750   0.18700   0.19950   1.000
    N944    N    0.59250   0.93700   0.44950   1.000
    N945    N    0.40750   0.06300   0.44950   1.000
    N946    N    0.84250   0.31300   0.69950   1.000
    N947    N    0.65750   0.18700   0.69950   1.000
    O948    O    0.27508   0.99990   0.82660   1.000
    O949    O    0.97460   0.73520   0.68120   1.000
    O950    O    0.27540   0.98520   0.93120   1.000
    O951    O    0.22460   0.51480   0.93120   1.000
    O952    O    0.52540   0.26480   0.18120   1.000
    O953    O    0.47460   0.73520   0.18120   1.000
    O954    O    0.77540   0.98520   0.43120   1.000
    O955    O    0.72460   0.51480   0.43120   1.000
    O956    O    0.02540   0.76480   0.18120   1.000
    O957    O    0.97460   0.23520   0.18120   1.000
    O958    O    0.27540   0.48520   0.43120   1.000
    O959    O    0.22460   0.01480   0.43120   1.000
    O960    O    0.52540   0.76480   0.68120   1.000
    O961    O    0.47460   0.23520   0.68120   1.000
    O962    O    0.77540   0.48520   0.93120   1.000
    O963    O    0.72460   0.01480   0.93120   1.000
    O964    O    0.97492   0.74990   0.57660   1.000
    O965    O    0.22492   0.50010   0.82660   1.000
    O966    O    0.52508   0.25010   0.07660   1.000
    O967    O    0.47492   0.74990   0.07660   1.000
    O968    O    0.77508   0.99990   0.32660   1.000
    O969    O    0.72492   0.50010   0.32660   1.000
    O970    O    0.02508   0.75010   0.07660   1.000
    O971    O    0.97492   0.24990   0.07660   1.000
    O972    O    0.27508   0.49990   0.32660   1.000
    O973    O    0.22492   0.00010   0.32660   1.000
    O974    O    0.52508   0.75010   0.57660   1.000
    O975    O    0.47492   0.24990   0.57660   1.000
    O976    O    0.77508   0.49990   0.82660   1.000
    O977    O    0.72492   0.00010   0.82660   1.000
    O978    O    0.95263   0.81450   0.63710   1.000
    O979    O    0.29737   0.06450   0.88710   1.000
    O980    O    0.20263   0.43550   0.88710   1.000
    O981    O    0.54737   0.18550   0.13710   1.000
    O982    O    0.45263   0.81450   0.13710   1.000
    O983    O    0.79737   0.06450   0.38710   1.000
    O984    O    0.70263   0.43550   0.38710   1.000
    O985    O    0.04737   0.68550   0.13710   1.000
    O986    O    0.95263   0.31450   0.13710   1.000
    O987    O    0.29737   0.56450   0.38710   1.000
    O988    O    0.20263   0.93550   0.38710   1.000
    O989    O    0.54737   0.68550   0.63710   1.000
    O990    O    0.45263   0.31450   0.63710   1.000
    O991    O    0.79737   0.56450   0.88710   1.000
    O992    O    0.70263   0.93550   0.88710   1.000
    H993    H    0.93270   0.83830   0.64000   1.000
    H994    H    0.31730   0.08830   0.89000   1.000
    H995    H    0.18270   0.41170   0.89000   1.000
    H996    H    0.56730   0.16170   0.14000   1.000
    H997    H    0.43270   0.83830   0.14000   1.000
    H998    H    0.81730   0.08830   0.39000   1.000
    H999    H    0.68270   0.41170   0.39000   1.000
    H1000   H    0.06730   0.66170   0.14000   1.000
    H1001   H    0.93270   0.33830   0.14000   1.000
    H1002   H    0.31730   0.58830   0.39000   1.000
    H1003   H    0.18270   0.91170   0.39000   1.000
    H1004   H    0.56730   0.66170   0.64000   1.000
    H1005   H    0.43270   0.33830   0.64000   1.000
    H1006   H    0.81730   0.58830   0.89000   1.000
    H1007   H    0.68270   0.91170   0.89000   1.000
    O1008   O    0.03427   0.77930   0.56150   1.000
    O1009   O    0.21573   0.02930   0.81150   1.000
    O1010   O    0.28427   0.47070   0.81150   1.000
    O1011   O    0.46573   0.22070   0.06150   1.000
    O1012   O    0.53427   0.77930   0.06150   1.000
    O1013   O    0.71573   0.02930   0.31150   1.000
    O1014   O    0.78427   0.47070   0.31150   1.000
    O1015   O    0.96573   0.72070   0.06150   1.000
    O1016   O    0.03427   0.27930   0.06150   1.000
    O1017   O    0.21573   0.52930   0.31150   1.000
    O1018   O    0.28427   0.97070   0.31150   1.000
    O1019   O    0.46573   0.72070   0.56150   1.000
    O1020   O    0.53427   0.27930   0.56150   1.000
    O1021   O    0.71573   0.52930   0.81150   1.000
    O1022   O    0.78427   0.97070   0.81150   1.000
    H1023   H    0.04860   0.78970   0.53340   1.000
    H1024   H    0.20140   0.03970   0.78340   1.000
    H1025   H    0.29860   0.46030   0.78340   1.000
    H1026   H    0.45140   0.21030   0.03340   1.000
    H1027   H    0.54860   0.78970   0.03340   1.000
    H1028   H    0.70140   0.03970   0.28340   1.000
    H1029   H    0.79860   0.46030   0.28340   1.000
    H1030   H    0.95140   0.71030   0.03340   1.000
    H1031   H    0.04860   0.28970   0.03340   1.000
    H1032   H    0.20140   0.53970   0.28340   1.000
    H1033   H    0.29860   0.96030   0.28340   1.000
    H1034   H    0.45140   0.71030   0.53340   1.000
    H1035   H    0.54860   0.28970   0.53340   1.000
    H1036   H    0.70140   0.53970   0.78340   1.000
    H1037   H    0.79860   0.96030   0.78340   1.000
    C1038   C    0.93800   0.65450   0.53430   1.000
    C1039   C    0.31200   0.90450   0.78430   1.000
    C1040   C    0.18800   0.59550   0.78430   1.000
    C1041   C    0.56200   0.34550   0.03430   1.000
    C1042   C    0.43800   0.65450   0.03430   1.000
    C1043   C    0.81200   0.90450   0.28430   1.000
    C1044   C    0.68800   0.59550   0.28430   1.000
    C1045   C    0.06200   0.84550   0.03430   1.000
    C1046   C    0.93800   0.15450   0.03430   1.000
    C1047   C    0.31200   0.40450   0.28430   1.000
    C1048   C    0.18800   0.09550   0.28430   1.000
    C1049   C    0.56200   0.84550   0.53430   1.000
    C1050   C    0.43800   0.15450   0.53430   1.000
    C1051   C    0.81200   0.40450   0.78430   1.000
    C1052   C    0.68800   0.09550   0.78430   1.000
    O1053   O    0.03156   0.88120   0.55800   1.000
    O1054   O    0.21844   0.13120   0.80800   1.000
    O1055   O    0.28156   0.36880   0.80800   1.000
    O1056   O    0.46844   0.11880   0.05800   1.000
    O1057   O    0.53156   0.88120   0.05800   1.000
    O1058   O    0.71844   0.13120   0.30800   1.000
    O1059   O    0.78156   0.36880   0.30800   1.000
    O1060   O    0.96844   0.61880   0.05800   1.000
    O1061   O    0.03156   0.38120   0.05800   1.000
    O1062   O    0.21844   0.63120   0.30800   1.000
    O1063   O    0.28156   0.86880   0.30800   1.000
    O1064   O    0.46844   0.61880   0.55800   1.000
    O1065   O    0.53156   0.38120   0.55800   1.000
    O1066   O    0.71844   0.63120   0.80800   1.000
    O1067   O    0.78156   0.86880   0.80800   1.000
    N1068   N    0.93260   0.58870   0.47150   1.000
    N1069   N    0.31740   0.83870   0.72150   1.000
    N1070   N    0.18260   0.66130   0.72150   1.000
    N1071   N    0.56740   0.41130   0.97150   1.000
    N1072   N    0.43260   0.58870   0.97150   1.000
    N1073   N    0.81740   0.83870   0.22150   1.000
    N1074   N    0.68260   0.66130   0.22150   1.000
    N1075   N    0.06740   0.91130   0.97150   1.000
    N1076   N    0.93260   0.08870   0.97150   1.000
    N1077   N    0.31740   0.33870   0.22150   1.000
    N1078   N    0.18260   0.16130   0.22150   1.000
    N1079   N    0.56740   0.91130   0.47150   1.000
    N1080   N    0.43260   0.08870   0.47150   1.000
    N1081   N    0.81740   0.33870   0.72150   1.000
    N1082   N    0.68260   0.16130   0.72150   1.000
    C1083   C    0.00390   0.75370   0.38030   1.000
    C1084   C    0.24610   0.00370   0.63030   1.000
    C1085   C    0.25390   0.49630   0.63030   1.000
    C1086   C    0.49610   0.24630   0.88030   1.000
    C1087   C    0.50390   0.75370   0.88030   1.000
    C1088   C    0.74610   0.00370   0.13030   1.000
    C1089   C    0.75390   0.49630   0.13030   1.000
    C1090   C    0.99610   0.74630   0.88030   1.000
    C1091   C    0.00390   0.25370   0.88030   1.000
    C1092   C    0.24610   0.50370   0.13030   1.000
    C1093   C    0.25390   0.99630   0.13030   1.000
    C1094   C    0.49610   0.74630   0.38030   1.000
    C1095   C    0.50390   0.25370   0.38030   1.000
    C1096   C    0.74610   0.50370   0.63030   1.000
    C1097   C    0.75390   0.99630   0.63030   1.000
    H1098   H    0.01010   0.71850   0.38150   1.000
    H1099   H    0.23990   0.96850   0.63150   1.000
    H1100   H    0.26010   0.53150   0.63150   1.000
    H1101   H    0.48990   0.28150   0.88150   1.000
    H1102   H    0.51010   0.71850   0.88150   1.000
    H1103   H    0.73990   0.96850   0.13150   1.000
    H1104   H    0.76010   0.53150   0.13150   1.000
    H1105   H    0.98990   0.78150   0.88150   1.000
    H1106   H    0.01010   0.21850   0.88150   1.000
    H1107   H    0.23990   0.46850   0.13150   1.000
    H1108   H    0.26010   0.03150   0.13150   1.000
    H1109   H    0.48990   0.78150   0.38150   1.000
    H1110   H    0.51010   0.21850   0.38150   1.000
    H1111   H    0.73990   0.46850   0.63150   1.000
    H1112   H    0.76010   0.03150   0.63150   1.000
    C1113   C    0.88060   0.60450   0.74070   1.000
    C1114   C    0.36940   0.85450   0.99070   1.000
    C1115   C    0.13060   0.64550   0.99070   1.000
    C1116   C    0.61940   0.39550   0.24070   1.000
    C1117   C    0.38060   0.60450   0.24070   1.000
    C1118   C    0.86940   0.85450   0.49070   1.000
    C1119   C    0.63060   0.64550   0.49070   1.000
    C1120   C    0.11940   0.89550   0.24070   1.000
    C1121   C    0.88060   0.10450   0.24070   1.000
    C1122   C    0.36940   0.35450   0.49070   1.000
    C1123   C    0.13060   0.14550   0.49070   1.000
    C1124   C    0.61940   0.89550   0.74070   1.000
    C1125   C    0.38060   0.10450   0.74070   1.000
    C1126   C    0.86940   0.35450   0.99070   1.000
    C1127   C    0.63060   0.14550   0.99070   1.000
    H1128   H    0.86370   0.62400   0.72440   1.000
    H1129   H    0.38630   0.87400   0.97440   1.000
    H1130   H    0.11370   0.62600   0.97440   1.000
    H1131   H    0.63630   0.37600   0.22440   1.000
    H1132   H    0.36370   0.62400   0.22440   1.000
    H1133   H    0.88630   0.87400   0.47440   1.000
    H1134   H    0.61370   0.62600   0.47440   1.000
    H1135   H    0.13630   0.87600   0.22440   1.000
    H1136   H    0.86370   0.12400   0.22440   1.000
    H1137   H    0.38630   0.37400   0.47440   1.000
    H1138   H    0.11370   0.12600   0.47440   1.000
    H1139   H    0.63630   0.87600   0.72440   1.000
    H1140   H    0.36370   0.12400   0.72440   1.000
    H1141   H    0.88630   0.37400   0.97440   1.000
    H1142   H    0.61370   0.12600   0.97440   1.000
    N1143   N    0.99040   0.83450   0.40180   1.000
    N1144   N    0.25960   0.08450   0.65180   1.000
    N1145   N    0.24040   0.41550   0.65180   1.000
    N1146   N    0.50960   0.16550   0.90180   1.000
    N1147   N    0.49040   0.83450   0.90180   1.000
    N1148   N    0.75960   0.08450   0.15180   1.000
    N1149   N    0.74040   0.41550   0.15180   1.000
    N1150   N    0.00960   0.66550   0.90180   1.000
    N1151   N    0.99040   0.33450   0.90180   1.000
    N1152   N    0.25960   0.58450   0.15180   1.000
    N1153   N    0.24040   0.91550   0.15180   1.000
    N1154   N    0.50960   0.66550   0.40180   1.000
    N1155   N    0.49040   0.33450   0.40180   1.000
    N1156   N    0.75960   0.58450   0.65180   1.000
    N1157   N    0.74040   0.91550   0.65180   1.000
    N1158   N    0.99080   0.83140   0.35400   1.000
    N1159   N    0.25920   0.08140   0.60400   1.000
    N1160   N    0.24080   0.41860   0.60400   1.000
    N1161   N    0.50920   0.16860   0.85400   1.000
    N1162   N    0.49080   0.83140   0.85400   1.000
    N1163   N    0.75920   0.08140   0.10400   1.000
    N1164   N    0.74080   0.41860   0.10400   1.000
    N1165   N    0.00920   0.66860   0.85400   1.000
    N1166   N    0.99080   0.33140   0.85400   1.000
    N1167   N    0.25920   0.58140   0.10400   1.000
    N1168   N    0.24080   0.91860   0.10400   1.000
    N1169   N    0.50920   0.66860   0.35400   1.000
    N1170   N    0.49080   0.33140   0.35400   1.000
    N1171   N    0.75920   0.58140   0.60400   1.000
    N1172   N    0.74080   0.91860   0.60400   1.000
    C1173   C    0.83290   0.87090   0.25350   1.000
    N1174   N    0.06850   0.92460   0.78400   1.000
    N1175   N    0.18150   0.17460   0.03400   1.000
    N1176   N    0.31850   0.32540   0.03400   1.000
    N1177   N    0.43150   0.07540   0.28400   1.000
    N1178   N    0.56850   0.92460   0.28400   1.000
    N1179   N    0.68150   0.17460   0.53400   1.000
    N1180   N    0.81850   0.32540   0.53400   1.000
    N1181   N    0.93150   0.57540   0.28400   1.000
    N1182   N    0.06850   0.42460   0.28400   1.000
    N1183   N    0.18150   0.67460   0.53400   1.000
    N1184   N    0.31850   0.82540   0.53400   1.000
    N1185   N    0.43150   0.57540   0.78400   1.000
    N1186   N    0.56850   0.42460   0.78400   1.000
    N1187   N    0.68150   0.67460   0.03400   1.000
    N1188   N    0.81850   0.82540   0.03400   1.000
    C1189   C    0.91710   0.62090   0.50350   1.000
    C1190   C    0.33290   0.87090   0.75350   1.000
    C1191   C    0.16710   0.62910   0.75350   1.000
    C1192   C    0.58290   0.37910   0.00350   1.000
    C1193   C    0.41710   0.62090   0.00350   1.000
    C1194   C    0.66710   0.62910   0.25350   1.000
    C1195   C    0.08290   0.87910   0.00350   1.000
    C1196   C    0.91710   0.12090   0.00350   1.000
    C1197   C    0.33290   0.37090   0.25350   1.000
    C1198   C    0.16710   0.12910   0.25350   1.000
    C1199   C    0.58290   0.87910   0.50350   1.000
    C1200   C    0.41710   0.12090   0.50350   1.000
    C1201   C    0.83290   0.37090   0.75350   1.000
    C1202   C    0.66710   0.12910   0.75350   1.000
    C1203   C    0.99890   0.78280   0.34060   1.000
    C1204   C    0.25110   0.03280   0.59060   1.000
    C1205   C    0.24890   0.46720   0.59060   1.000
    C1206   C    0.50110   0.21720   0.84060   1.000
    C1207   C    0.49890   0.78280   0.84060   1.000
    C1208   C    0.75110   0.03280   0.09060   1.000
    C1209   C    0.74890   0.46720   0.09060   1.000
    C1210   C    0.00110   0.71720   0.84060   1.000
    C1211   C    0.99890   0.28280   0.84060   1.000
    C1212   C    0.25110   0.53280   0.09060   1.000
    C1213   C    0.24890   0.96720   0.09060   1.000
    C1214   C    0.50110   0.71720   0.34060   1.000
    C1215   C    0.49890   0.28280   0.34060   1.000
    C1216   C    0.75110   0.53280   0.59060   1.000
    C1217   C    0.74890   0.96720   0.59060   1.000
    C1218   C    0.00010   0.77260   0.28830   1.000
    C1219   C    0.24990   0.02260   0.53830   1.000
    C1220   C    0.25010   0.47740   0.53830   1.000
    C1221   C    0.49990   0.22740   0.78830   1.000
    C1222   C    0.50010   0.77260   0.78830   1.000
    C1223   C    0.74990   0.02260   0.03830   1.000
    C1224   C    0.75010   0.47740   0.03830   1.000
    C1225   C    0.99990   0.72740   0.78830   1.000
    C1226   C    0.00010   0.27260   0.78830   1.000
    C1227   C    0.24990   0.52260   0.03830   1.000
    C1228   C    0.25010   0.97740   0.03830   1.000
    C1229   C    0.49990   0.72740   0.28830   1.000
    C1230   C    0.50010   0.27260   0.28830   1.000
    C1231   C    0.74990   0.52260   0.53830   1.000
    C1232   C    0.75010   0.97740   0.53830   1.000
    C1233   C    0.12230   0.93980   0.78320   1.000
    C1234   C    0.12770   0.18980   0.03320   1.000
    C1235   C    0.37230   0.31020   0.03320   1.000
    C1236   C    0.37770   0.06020   0.28320   1.000
    C1237   C    0.62230   0.93980   0.28320   1.000
    C1238   C    0.62770   0.18980   0.53320   1.000
    C1239   C    0.87230   0.31020   0.53320   1.000
    C1240   C    0.87770   0.56020   0.28320   1.000
    C1241   C    0.12230   0.43980   0.28320   1.000
    C1242   C    0.12770   0.68980   0.53320   1.000
    C1243   C    0.37230   0.81020   0.53320   1.000
    C1244   C    0.37770   0.56020   0.78320   1.000
    C1245   C    0.62230   0.43980   0.78320   1.000
    C1246   C    0.62770   0.68980   0.03320   1.000
    C1247   C    0.87230   0.81020   0.03320   1.000
loop_
    _geom_bond_atom_site_label_1
    _geom_bond_atom_site_label_2
    _geom_bond_distance
    _geom_bond_site_symmetry_2
    _ccdc_geom_bond_type
    C613   N1175     1.32159      .   S
    C613   C673      1.49278  1_554   S
    C613   C366      1.38458  1_554   S
    C614   N1176     1.32159      .   S
    C614   C674      1.49278  1_554   S
    C614   C709      1.38458  1_554   S
    C625   N1187     1.32159      .   S
    C625   C685      1.49278  1_554   S
    C625   C720      1.38458  1_554   S
    C626   N1188     1.32159      .   S
    C626   C686      1.49278  1_554   S
    C626   C721      1.38458  1_554   S
    N770   C785      1.42040      .   S
    N770   N755      1.42025  1_554   S
    N771   C786      1.42040      .   S
    N771   N756      1.42025  1_554   S
    N774   C789      1.42040      .   S
    N774   N759      1.42025  1_554   S
    N775   C790      1.42040      .   S
    N775   N760      1.42025  1_554   S
    C909   C1195     1.38039      .   S
    C909   H924      0.94928      .   S
    C909   C574      1.37131  1_554   S
    C906   C1193     1.38039      .   S
    C906   H921      0.94928      .   S
    C906   C571      1.37131  1_554   S
    C905   C1192     1.38039      .   S
    C905   H920      0.94928      .   S
    C905   C570      1.37131  1_554   S
    C910   C1196     1.38039      .   S
    C910   H925      0.94928      .   S
    C910   C575      1.37131  1_554   S
    C1192  C1041     1.47443      .   S
    C1192  N1071     1.36668  1_554   S
    C1193  C1042     1.47443      .   S
    C1193  N1072     1.36668  1_554   S
    C1195  C1045     1.47443      .   S
    C1195  N1075     1.36668  1_554   S
    C1196  C1046     1.47443      .   S
    C1196  N1076     1.36668  1_554   S
    O316   C1223     1.28388      .   S
    O316   Zr143     2.17418  1_554   S
    O317   C1224     1.28388      .   S
    O317   Zr142     2.17418  1_554   S
    O320   C1227     1.28388      .   S
    O320   Zr131     2.17418  1_554   S
    O321   C1228     1.28388      .   S
    O321   Zr130     2.17418  1_554   S
    N453   N888      1.31686      .   S
    N453   C598      1.32464  1_554   S
    N454   N889      1.31686      .   S
    N454   C599      1.32464  1_554   S
    N931   N900      1.31686      .   S
    N931   C610      1.32464  1_554   S
    N932   N901      1.31686      .   S
    N932   C611      1.32464  1_554   S
    O635   C1046     1.26099      .   S
    O635   Zr107     2.24497  1_655   S
    O634   C1045     1.26099      .   S
    O634   Zr106     2.24497  1_455   S
    O631   C1042     1.26099      .   S
    O631   Zr103     2.24497      .   S
    O630   C1041     1.26099      .   S
    O630   Zr102     2.24497      .   S
    O487   C1228     1.27840  1_545   S
    O486   C1227     1.27840      .   S
    O483   C1224     1.27840      .   S
    O482   C1223     1.27840  1_565   S
    C873   N888      1.31076      .   S
    C873   C583      1.49981      .   S
    C873   C1114     1.38746  1_554   S
    C874   N889      1.31076      .   S
    C874   C584      1.49981      .   S
    C874   C1115     1.38746  1_554   S
    C885   N900      1.31076      .   S
    C885   C595      1.49981      .   S
    C885   C1126     1.38746  1_554   S
    C886   N901      1.31076      .   S
    C886   C596      1.49981      .   S
    C886   C1127     1.38746  1_554   S
    C800   C785      1.42021      .   S
    C800   H815      0.95166      .   S
    C800   C830      1.41901  1_554   S
    C801   C786      1.42021      .   S
    C801   H816      0.95166      .   S
    C801   C831      1.41901  1_554   S
    C804   C789      1.42021      .   S
    C804   H819      0.95166      .   S
    C804   C834      1.41901  1_554   S
    C805   C790      1.42021      .   S
    C805   H820      0.95166      .   S
    C805   C835      1.41901  1_554   S
    C1247  C656      1.50444      .   S
    C1247  N856      1.33941      .   S
    C1247  C721      1.35892  1_554   S
    C1246  C655      1.50444      .   S
    C1246  N855      1.33941      .   S
    C1246  C720      1.35892  1_554   S
    C1235  C644      1.50444      .   S
    C1235  N844      1.33941      .   S
    C1235  C709      1.35892  1_554   S
    C1234  C643      1.50444      .   S
    C1234  N843      1.33941      .   S
    C1234  C366      1.35892  1_554   S
    H1027  O1012     1.00159      .   S
    H1031  O1016     1.00159      .   S
    H1026  O1011     1.00159      .   S
    H1030  O1015     1.00159      .   S
    N1188  N856      1.32020      .   S
    N1187  N855      1.32020      .   S
    N1176  N844      1.32020      .   S
    N1175  N843      1.32020      .   S
    O267   C643      1.26773      .   S
    O280   C656      1.26773      .   S
    O279   C655      1.26773      .   S
    O268   C644      1.26773      .   S
    C1041  O510      1.27529      .   S
    C1042  O511      1.27529      .   S
    C1045  O514      1.27529      .   S
    C1046  O515      1.27529      .   S
    C785   C660      1.45872      .   S
    C786   C661      1.45872      .   S
    C789   C664      1.45872      .   S
    C790   C665      1.45872      .   S
    C1227  C1212     1.48318      .   S
    C1223  C1208     1.48318      .   S
    C1224  C1209     1.48318      .   S
    C1228  C1213     1.48318      .   S
    O219   C583      1.25313      .   S
    O475   C595      1.25313      .   S
    O476   C596      1.25313      .   S
    O464   C584      1.25313      .   S
    C643   O252      1.26140      .   S
    C644   O253      1.26140      .   S
    C655   O264      1.26140      .   S
    C656   O265      1.26140      .   S
    C596   O220      1.27282      .   S
    C595   O87       1.27282      .   S
    C584   O210      1.27282      .   S
    C583   O209      1.27282      .   S
    O1061  C665      1.25436      .   S
    O1056  C660      1.25436      .   S
    O1057  C661      1.25436      .   S
    O1060  C664      1.25436      .   S
    Zr107  O1016     2.23054      .   S
    Zr107  O971      2.04619  1_455   S
    Zr106  O1015     2.23054      .   S
    Zr106  O970      2.04619  1_655   S
    Zr103  O1012     2.23054      .   S
    Zr103  O967      2.04619      .   S
    Zr102  O1011     2.23054      .   S
    Zr102  O966      2.04619      .   S
    C665   O383      1.26166      .   S
    C664   O382      1.26166      .   S
    C661   O379      1.26166      .   S
    C660   O378      1.26166      .   S
    O510   Zr166     2.21144      .   S
    O511   Zr167     2.21144      .   S
    O514   Zr170     2.21144      .   S
    O515   Zr171     2.21144      .   S
    Zr151  O985      2.23786      .   S
    Zr151  O200      2.07339  1_455   S
    Zr151  O442      2.19862  1_554   S
    Zr147  O981      2.23786      .   S
    Zr147  O196      2.07339      .   S
    Zr147  O438      2.19862  1_554   S
    Zr148  O982      2.23786      .   S
    Zr148  O197      2.07339      .   S
    Zr148  O439      2.19862  1_554   S
    Zr152  O986      2.23786      .   S
    Zr152  O201      2.07339  1_655   S
    Zr152  O443      2.19862  1_554   S
    O971   Zr171     2.03365      .   S
    O970   Zr170     2.03365      .   S
    O967   Zr167     2.03365      .   S
    O966   Zr166     2.03365      .   S
    O265   Zr121     2.22163      .   S
    O264   Zr118     2.22163      .   S
    O253   Zr117     2.22163      .   S
    O252   Zr122     2.22163      .   S
    O209   Zr167     2.18437      .   S
    O220   Zr166     2.18437      .   S
    O87    Zr171     2.18437      .   S
    O210   Zr170     2.18437      .   S
    C1212  N1167     1.35627      .   S
    C1212  C1092     1.35551      .   S
    C1208  N1163     1.35627      .   S
    C1208  C1088     1.35551      .   S
    C1209  N1164     1.35627      .   S
    C1209  C1089     1.35551      .   S
    C1213  N1168     1.35627      .   S
    C1213  C1093     1.35551      .   S
    O378   Zr117     2.20954      .   S
    O379   Zr118     2.20954      .   S
    O382   Zr121     2.20954      .   S
    O383   Zr122     2.20954      .   S
    N1168  N1153     1.33553      .   S
    N1167  N1152     1.33553      .   S
    N1163  N1148     1.33553      .   S
    N1164  N1149     1.33553      .   S
    H243   O228      0.99990      .   S
    H240   O225      0.99990      .   S
    H239   O224      0.99990      .   S
    H244   O229      0.99990      .   S
    O225   Zr133     2.22841      .   S
    O228   Zr136     2.22841  1_455   S
    O224   Zr132     2.22841      .   S
    O229   Zr137     2.22841  1_655   S
    O182   Zr118     2.07127      .   S
    O182   Zr133     2.06761      .   S
    O181   Zr117     2.07127      .   S
    O181   Zr132     2.06761      .   S
    O185   Zr121     2.07127      .   S
    O185   Zr136     2.06761      .   S
    O186   Zr122     2.07127      .   S
    O186   Zr137     2.06761      .   S
    Zr171  O334      2.20252      .   S
    Zr171  O347      2.21385      .   S
    Zr171  O957      2.03960      .   S
    Zr170  O333      2.20252      .   S
    Zr170  O350      2.21385      .   S
    Zr170  O956      2.03960      .   S
    Zr167  O330      2.20252      .   S
    Zr167  O351      2.21385      .   S
    Zr167  O953      2.03960      .   S
    Zr166  O329      2.20252      .   S
    Zr166  O346      2.21385      .   S
    Zr166  O952      2.03960      .   S
    C1088  H1103     0.94816  1_545   S
    C1088  C742      1.39295      .   S
    C1093  H1108     0.94816  1_565   S
    C1093  C747      1.39295      .   S
    C1092  H1107     0.94816      .   S
    C1092  C746      1.39295      .   S
    C1089  H1104     0.94816      .   S
    C1089  C743      1.39295      .   S
    Zr122  O201      2.07096      .   S
    Zr122  O306      2.21872      .   S
    Zr122  O500      2.20215      .   S
    Zr121  O200      2.07096      .   S
    Zr121  O301      2.21872      .   S
    Zr121  O499      2.20215      .   S
    Zr117  O196      2.07096      .   S
    Zr117  O305      2.21872      .   S
    Zr117  O495      2.20215      .   S
    Zr118  O197      2.07096      .   S
    Zr118  O302      2.21872      .   S
    Zr118  O496      2.20215      .   S
    O986   H1001     1.00052      .   S
    O982   H997      1.00052      .   S
    O985   H1000     1.00052      .   S
    O981   H996      1.00052      .   S
    N1148  C742      1.37384      .   S
    N1152  C746      1.37384      .   S
    N1149  C743      1.37384      .   S
    N1153  C747      1.37384      .   S
    O329   C540      1.27742      .   S
    O330   C541      1.27742      .   S
    O333   C544      1.27742      .   S
    O334   C545      1.27742      .   S
    C747   C867      1.48314      .   S
    C742   C862      1.48314      .   S
    C743   C863      1.48314      .   S
    C746   C866      1.48314      .   S
    O306   C697      1.26311      .   S
    O305   C696      1.26311      .   S
    O301   C692      1.26311      .   S
    O302   C693      1.26311      .   S
    O346   C707      1.26042      .   S
    O351   C360      1.26042      .   S
    O350   C359      1.26042      .   S
    O347   C708      1.26042      .   S
    O957   Zr92      2.05329      .   S
    O952   Zr0       2.05329      .   S
    O953   Zr88      2.05329      .   S
    O956   Zr91      2.05329      .   S
    Zr133  O409      2.23529      .   S
    Zr133  O322      2.17418      .   S
    Zr132  O408      2.23529      .   S
    Zr132  O323      2.17418      .   S
    Zr136  O412      2.23529      .   S
    Zr136  O311      2.17418      .   S
    Zr137  O413      2.23529      .   S
    Zr137  O16       2.17418      .   S
    O495   C675      1.25115      .   S
    O496   C676      1.25115      .   S
    O499   C679      1.25115      .   S
    O500   C680      1.25115      .   S
    C693   O162      1.26863      .   S
    C693   C573      1.46458      .   S
    C697   O370      1.26863      .   S
    C697   C577      1.46458      .   S
    C696   O369      1.26863      .   S
    C696   C576      1.46458      .   S
    C692   O161      1.26863      .   S
    C692   C572      1.46458      .   S
    N943   C577      1.37856      .   S
    N943   N1078     1.33892      .   S
    N942   C576      1.37856      .   S
    N942   N1077     1.33892      .   S
    N938   C572      1.37856      .   S
    N938   N1073     1.33892      .   S
    N939   C573      1.37856      .   S
    N939   N1074     1.33892      .   S
    C540   O393      1.24178      .   S
    C540   C600      1.49278      .   S
    C541   O394      1.24178      .   S
    C541   C601      1.49278      .   S
    C545   O398      1.24178      .   S
    C545   C605      1.49278      .   S
    C544   O397      1.24178      .   S
    C544   C604      1.49278      .   S
    Zr88   O526      2.25084      .   S
    Zr92   O530      2.25084  1_655   S
    Zr91   O529      2.25084  1_455   S
    Zr0    O525      2.25084      .   S
    O408   H423      0.99793      .   S
    O409   H424      0.99793      .   S
    O412   H427      0.99793      .   S
    O413   H428      0.99793      .   S
    C708   O287      1.25764      .   S
    C708   C833      1.41764      .   S
    C360   O291      1.25764      .   S
    C360   C837      1.41764      .   S
    C359   O290      1.25764      .   S
    C359   C836      1.41764      .   S
    C707   O286      1.25764      .   S
    C707   C832      1.41764      .   S
    C572   C907      1.37131      .   S
    C577   C912      1.37131      .   S
    C573   C908      1.37131      .   S
    C576   C911      1.37131      .   S
    C676   O526      1.25874      .   S
    C676   C616      1.49278      .   S
    C680   O530      1.25874      .   S
    C680   C620      1.49278      .   S
    C675   O525      1.25874      .   S
    C675   C615      1.49278      .   S
    C679   O529      1.25874      .   S
    C679   C619      1.49278      .   S
    N1078  C1198     1.36668      .   S
    N1077  C1197     1.36668      .   S
    N1074  C1194     1.36668      .   S
    N1073  C1173     1.36668      .   S
    C867   O562      1.28769  1_565   S
    C867   O445      1.28267      .   S
    C863   O558      1.28769      .   S
    C863   O441      1.28267      .   S
    C862   O557      1.28769  1_545   S
    C862   O440      1.28267      .   S
    C866   O561      1.28769      .   S
    C866   O444      1.28267      .   S
    N757   C832      1.41969      .   S
    N757   N772      1.42025      .   S
    N758   C833      1.41969      .   S
    N758   N773      1.42025      .   S
    N761   C836      1.41969      .   S
    N761   N776      1.42025      .   S
    N762   C837      1.41969      .   S
    N762   N777      1.42025      .   S
    H1136  C1121     0.95047      .   S
    H1132  C1117     0.95047      .   S
    H1131  C1116     0.95047      .   S
    H1135  C1120     0.95047      .   S
    H725   C710      0.95110      .   S
    H726   C711      0.95110      .   S
    H730   C715      0.95110      .   S
    H729   C714      0.95110      .   S
    C605   C1121     1.34858      .   S
    C605   N460      1.32464      .   S
    C604   C1120     1.34858      .   S
    C604   N459      1.32464      .   S
    C601   C1117     1.34858      .   S
    C601   N456      1.32464      .   S
    C600   C1116     1.34858      .   S
    C600   N455      1.32464      .   S
    C832   C802      1.41901      .   S
    C837   C807      1.41901      .   S
    C836   C806      1.41901      .   S
    C833   C803      1.41901      .   S
    C1120  C879      1.38746      .   S
    C1121  C880      1.38746      .   S
    C1117  C876      1.38746      .   S
    C1116  C875      1.38746      .   S
    O441   Zr150     2.19862      .   S
    O444   Zr153     2.19862      .   S
    O445   Zr154     2.19862      .   S
    O440   Zr149     2.19862      .   S
    C710   C615      1.38458      .   S
    C710   C1236     1.35892      .   S
    C711   C616      1.38458      .   S
    C711   C1237     1.35892      .   S
    C714   C619      1.38458      .   S
    C714   C1240     1.35892      .   S
    C715   C620      1.38458      .   S
    C715   C1241     1.35892      .   S
    C619   N1181     1.32159      .   S
    C615   N1177     1.32159      .   S
    C616   N1178     1.32159      .   S
    C620   N1182     1.32159      .   S
    N772   C787      1.42040      .   S
    N773   C788      1.42040      .   S
    N776   C791      1.42040      .   S
    N777   C792      1.42040      .   S
    C907   C1173     1.38039      .   S
    C907   H922      0.94928      .   S
    C908   C1194     1.38039      .   S
    C908   H923      0.94928      .   S
    C911   C1197     1.38039      .   S
    C911   H926      0.94928      .   S
    C912   C1198     1.38039      .   S
    C912   H927      0.94928      .   S
    C1197  C1047     1.47443      .   S
    C1194  C1044     1.47443      .   S
    C1173  C1043     1.47443      .   S
    C1198  C1048     1.47443      .   S
    O16    C78       1.28388  1_455   S
    O323   C1230     1.28388      .   S
    O322   C1229     1.28388      .   S
    O311   C1218     1.28388  1_655   S
    N455   N890      1.31686      .   S
    N460   N895      1.31686      .   S
    N459   N894      1.31686      .   S
    N456   N891      1.31686      .   S
    O636   C1047     1.26099      .   S
    O636   Zr108     2.24497      .   S
    O633   C1044     1.26099      .   S
    O633   Zr105     2.24497      .   S
    O632   C1043     1.26099      .   S
    O632   Zr104     2.24497      .   S
    O637   C1048     1.26099      .   S
    O637   Zr109     2.24497      .   S
    O27    C78       1.27840      .   S
    O477   C1218     1.27840      .   S
    O488   C1229     1.27840      .   S
    O489   C1230     1.27840      .   S
    C875   N890      1.31076      .   S
    C875   C585      1.49981      .   S
    C876   N891      1.31076      .   S
    C876   C586      1.49981      .   S
    C880   N895      1.31076      .   S
    C880   C590      1.49981      .   S
    C879   N894      1.31076      .   S
    C879   C589      1.49981      .   S
    C807   C792      1.42021      .   S
    C807   H822      0.95166      .   S
    C806   C791      1.42021      .   S
    C806   H821      0.95166      .   S
    C803   C788      1.42021      .   S
    C803   H818      0.95166      .   S
    C802   C787      1.42021      .   S
    C802   H817      0.95166      .   S
    C1241  C650      1.50444      .   S
    C1241  N850      1.33941      .   S
    C1240  C649      1.50444      .   S
    C1240  N849      1.33941      .   S
    C1237  C646      1.50444      .   S
    C1237  N846      1.33941      .   S
    C1236  C645      1.50444      .   S
    C1236  N845      1.33941      .   S
    H1028  O1013     1.00159      .   S
    H1029  O1014     1.00159      .   S
    H1032  O1017     1.00159      .   S
    H1033  O1018     1.00159      .   S
    N1181  N849      1.32020      .   S
    N1182  N850      1.32020      .   S
    N1177  N845      1.32020      .   S
    N1178  N846      1.32020      .   S
    C1047  O516      1.27529      .   S
    C1043  O512      1.27529      .   S
    C1044  O513      1.27529      .   S
    C1048  O517      1.27529      .   S
    O269   C645      1.26773      .   S
    O270   C646      1.26773      .   S
    O273   C649      1.26773      .   S
    O274   C650      1.26773      .   S
    C788   C663      1.45872      .   S
    C792   C667      1.45872      .   S
    C791   C666      1.45872      .   S
    C787   C662      1.45872      .   S
    C78    C77       1.48318  1_655   S
    C1218  C1203     1.48318  1_455   S
    C1229  C1214     1.48318      .   S
    C1230  C1215     1.48318      .   S
    O466   C586      1.25313      .   S
    O465   C585      1.25313      .   S
    O469   C589      1.25313      .   S
    O470   C590      1.25313      .   S
    C649   O258      1.26140      .   S
    C646   O255      1.26140      .   S
    C645   O254      1.26140      .   S
    C650   O259      1.26140      .   S
    C585   O211      1.27282      .   S
    C589   O215      1.27282      .   S
    C586   O212      1.27282      .   S
    C590   O216      1.27282      .   S
    O1062  C666      1.25436      .   S
    O1063  C667      1.25436      .   S
    O1059  C663      1.25436      .   S
    O1058  C662      1.25436      .   S
    Zr104  O1013     2.23054  1_565   S
    Zr104  O968      2.04619      .   S
    Zr105  O1014     2.23054      .   S
    Zr105  O969      2.04619      .   S
    Zr108  O1017     2.23054      .   S
    Zr108  O972      2.04619      .   S
    Zr109  O1018     2.23054  1_545   S
    Zr109  O973      2.04619      .   S
    C663   O381      1.26166      .   S
    C667   O385      1.26166      .   S
    C666   O384      1.26166      .   S
    C662   O380      1.26166      .   S
    O517   Zr173     2.21144      .   S
    O516   Zr172     2.21144      .   S
    O513   Zr169     2.21144      .   S
    O512   Zr168     2.21144      .   S
    Zr153  O987      2.23786      .   S
    Zr153  O202      2.07339      .   S
    Zr154  O988      2.23786      .   S
    Zr154  O203      2.07339      .   S
    Zr150  O984      2.23786      .   S
    Zr150  O199      2.07339      .   S
    Zr149  O983      2.23786      .   S
    Zr149  O198      2.07339      .   S
    O973   Zr173     2.03365      .   S
    O968   Zr168     2.03365      .   S
    O969   Zr169     2.03365      .   S
    O972   Zr172     2.03365      .   S
    O258   Zr120     2.22163      .   S
    O259   Zr123     2.22163      .   S
    O255   Zr119     2.22163  1_565   S
    O254   Zr124     2.22163  1_545   S
    O211   Zr169     2.18437      .   S
    O212   Zr172     2.18437      .   S
    O215   Zr173     2.18437  1_565   S
    O216   Zr168     2.18437  1_545   S
    C77    N74       1.35627      .   S
    C77    C69       1.35551  1_455   S
    C1203  N1158     1.35627      .   S
    C1203  C1083     1.35551  1_655   S
    C1215  N1170     1.35627      .   S
    C1215  C1095     1.35551      .   S
    C1214  N1169     1.35627      .   S
    C1214  C1094     1.35551      .   S
    O385   Zr124     2.20954      .   S
    O384   Zr123     2.20954      .   S
    O380   Zr119     2.20954      .   S
    O381   Zr120     2.20954      .   S
    N74    N73       1.33553      .   S
    N1158  N1143     1.33553      .   S
    N1169  N1154     1.33553      .   S
    N1170  N1155     1.33553      .   S
    H241   O226      0.99990      .   S
    H245   O230      0.99990      .   S
    H246   O231      0.99990      .   S
    H242   O227      0.99990      .   S
    O227   Zr135     2.22841      .   S
    O226   Zr134     2.22841      .   S
    O231   Zr139     2.22841      .   S
    O230   Zr138     2.22841      .   S
    O187   Zr123     2.07127      .   S
    O187   Zr138     2.06761      .   S
    O184   Zr120     2.07127      .   S
    O184   Zr135     2.06761      .   S
    O183   Zr119     2.07127  1_565   S
    O183   Zr134     2.06761      .   S
    O188   Zr124     2.07127  1_545   S
    O188   Zr139     2.06761      .   S
    Zr169  O332      2.20252      .   S
    Zr169  O353      2.21385      .   S
    Zr169  O955      2.03960      .   S
    Zr172  O335      2.20252      .   S
    Zr172  O352      2.21385      .   S
    Zr172  O958      2.03960      .   S
    Zr168  O331      2.20252      .   S
    Zr168  O18       2.21385  1_565   S
    Zr168  O954      2.03960      .   S
    Zr173  O336      2.20252      .   S
    Zr173  O341      2.21385  1_545   S
    Zr173  O959      2.03960      .   S
    C69    H70       0.94816      .   S
    C69    C45       1.39295  1_655   S
    C1083  H1098     0.94816      .   S
    C1083  C737      1.39295  1_455   S
    C1095  H1110     0.94816      .   S
    C1095  C749      1.39295      .   S
    C1094  H1109     0.94816      .   S
    C1094  C748      1.39295      .   S
    Zr124  O203      2.07096      .   S
    Zr124  O308      2.21872  1_565   S
    Zr124  O502      2.20215      .   S
    Zr123  O202      2.07096      .   S
    Zr123  O15       2.21872      .   S
    Zr123  O501      2.20215      .   S
    Zr120  O199      2.07096      .   S
    Zr120  O296      2.21872      .   S
    Zr120  O498      2.20215      .   S
    Zr119  O198      2.07096      .   S
    Zr119  O307      2.21872  1_545   S
    Zr119  O497      2.20215      .   S
    O988   H1003     1.00052      .   S
    O987   H1002     1.00052      .   S
    O984   H999      1.00052      .   S
    O983   H998      1.00052      .   S
    N73    C45       1.37384      .   S
    N1155  C749      1.37384      .   S
    N1143  C737      1.37384      .   S
    N1154  C748      1.37384      .   S
    O335   C546      1.27742      .   S
    O331   C542      1.27742      .   S
    O336   C547      1.27742      .   S
    O332   C543      1.27742      .   S
    C45    C53       1.48314      .   S
    C748   C868      1.48314      .   S
    C749   C869      1.48314      .   S
    C737   C857      1.48314      .   S
    O15    C41       1.26311      .   S
    O296   C687      1.26311      .   S
    O307   C698      1.26311      .   S
    O308   C699      1.26311      .   S
    O18    C42       1.26042      .   S
    O352   C361      1.26042      .   S
    O353   C362      1.26042      .   S
    O341   C702      1.26042      .   S
    O959   Zr94      2.05329  1_545   S
    O958   Zr93      2.05329      .   S
    O955   Zr90      2.05329      .   S
    O954   Zr89      2.05329  1_565   S
    Zr135  O411      2.23529      .   S
    Zr135  O324      2.17418      .   S
    Zr134  O410      2.23529  1_565   S
    Zr134  O325      2.17418      .   S
    Zr138  O414      2.23529      .   S
    Zr138  O313      2.17418      .   S
    Zr139  O415      2.23529  1_545   S
    Zr139  O312      2.17418      .   S
    O497   C677      1.25115      .   S
    O498   C678      1.25115      .   S
    O501   C681      1.25115      .   S
    O502   C682      1.25115      .   S
    C41    O20       1.26863      .   S
    C41    C33       1.46458      .   S
    C699   O372      1.26863      .   S
    C699   C579      1.46458      .   S
    C687   O356      1.26863      .   S
    C687   C567      1.46458      .   S
    C698   O371      1.26863      .   S
    C698   C578      1.46458      .   S
    N59    C33       1.37856      .   S
    N59    N68       1.33892      .   S
    N933   C567      1.37856      .   S
    N933   N1068     1.33892      .   S
    N945   C579      1.37856      .   S
    N945   N1080     1.33892      .   S
    N944   C578      1.37856      .   S
    N944   N1079     1.33892      .   S
    C546   O399      1.24178      .   S
    C546   C606      1.49278      .   S
    C543   O396      1.24178      .   S
    C543   C603      1.49278      .   S
    C542   O395      1.24178      .   S
    C542   C602      1.49278      .   S
    C547   O400      1.24178      .   S
    C547   C607      1.49278      .   S
    Zr90   O528      2.25084      .   S
    Zr89   O527      2.25084      .   S
    Zr93   O531      2.25084      .   S
    Zr94   O532      2.25084      .   S
    O411   H426      0.99793      .   S
    O410   H425      0.99793      .   S
    O415   H430      0.99793      .   S
    O414   H429      0.99793      .   S
    C42    O14       1.25764      .   S
    C42    C51       1.41764      .   S
    C702   O281      1.25764      .   S
    C702   C827      1.41764      .   S
    C362   O293      1.25764      .   S
    C362   C839      1.41764      .   S
    C361   O292      1.25764      .   S
    C361   C838      1.41764      .   S
    C33    C56       1.37131      .   S
    C579   C914      1.37131      .   S
    C578   C913      1.37131      .   S
    C567   C902      1.37131      .   S
    C677   O527      1.25874      .   S
    C677   C617      1.49278      .   S
    C678   O528      1.25874      .   S
    C678   C618      1.49278      .   S
    C681   O531      1.25874      .   S
    C681   C621      1.49278      .   S
    C682   O532      1.25874      .   S
    C682   C622      1.49278      .   S
    N68    C76       1.36668      .   S
    N1068  C1189     1.36668      .   S
    N1080  C1200     1.36668      .   S
    N1079  C1199     1.36668      .   S
    C53    O32       1.28769  1_455   S
    C53    O25       1.28267      .   S
    C869   O564      1.28769      .   S
    C869   O447      1.28267      .   S
    C868   O563      1.28769      .   S
    C868   O446      1.28267      .   S
    C857   O552      1.28769  1_655   S
    C857   O435      1.28267      .   S
    N46    C51       1.41969      .   S
    N46    N47       1.42025      .   S
    N764   C839      1.41969      .   S
    N764   N779      1.42025      .   S
    N763   C838      1.41969      .   S
    N763   N778      1.42025      .   S
    N752   C827      1.41969      .   S
    N752   N767      1.42025      .   S
    H1134  C1119     0.95047      .   S
    H1133  C1118     0.95047      .   S
    H1137  C1122     0.95047      .   S
    H1138  C1123     0.95047      .   S
    H732   C717      0.95110      .   S
    H731   C716      0.95110      .   S
    H728   C713      0.95110      .   S
    H727   C712      0.95110      .   S
    C607   C1123     1.34858      .   S
    C607   N462      1.32464      .   S
    C606   C1122     1.34858      .   S
    C606   N461      1.32464      .   S
    C603   C1119     1.34858      .   S
    C603   N458      1.32464      .   S
    C602   C1118     1.34858      .   S
    C602   N457      1.32464      .   S
    C51    C49       1.41901      .   S
    C827   C797      1.41901      .   S
    C839   C809      1.41901      .   S
    C838   C808      1.41901      .   S
    C1118  C877      1.38746      .   S
    C1123  C882      1.38746      .   S
    C1122  C881      1.38746      .   S
    C1119  C878      1.38746      .   S
    O25    Zr5       2.19862      .   S
    O435   Zr144     2.19862      .   S
    O446   Zr155     2.19862      .   S
    O447   Zr156     2.19862      .   S
    C713   C618      1.38458      .   S
    C713   C1239     1.35892      .   S
    C717   C622      1.38458      .   S
    C717   C1243     1.35892      .   S
    C716   C621      1.38458      .   S
    C716   C1242     1.35892      .   S
    C712   C617      1.38458      .   S
    C712   C1238     1.35892      .   S
    C617   N1179     1.32159      .   S
    C622   N1184     1.32159      .   S
    C621   N1183     1.32159      .   S
    C618   N1180     1.32159      .   S
    N47    C48       1.42040      .   S
    N779   C794      1.42040      .   S
    N778   C793      1.42040      .   S
    N767   C782      1.42040      .   S
    C56    C76       1.38039      .   S
    C56    H57       0.94928      .   S
    C902   C1189     1.38039      .   S
    C902   H917      0.94928      .   S
    C914   C1200     1.38039      .   S
    C914   H929      0.94928      .   S
    C913   C1199     1.38039      .   S
    C913   H928      0.94928      .   S
    C76    C66       1.47443      .   S
    C1199  C1049     1.47443      .   S
    C1189  C1038     1.47443      .   S
    C1200  C1050     1.47443      .   S
    O313   C1220     1.28388      .   S
    O312   C1219     1.28388      .   S
    O324   C1231     1.28388      .   S
    O325   C1232     1.28388      .   S
    N457   N892      1.31686      .   S
    N458   N893      1.31686      .   S
    N461   N896      1.31686      .   S
    N462   N897      1.31686      .   S
    O37    C66       1.26099      .   S
    O37    Zr2       2.24497  1_455   S
    O638   C1049     1.26099      .   S
    O638   Zr110     2.24497      .   S
    O639   C1050     1.26099      .   S
    O639   Zr111     2.24497      .   S
    O627   C1038     1.26099      .   S
    O627   Zr99      2.24497  1_655   S
    O478   C1219     1.27840  1_565   S
    O479   C1220     1.27840      .   S
    O490   C1231     1.27840      .   S
    O491   C1232     1.27840  1_545   S
    C881   N896      1.31076      .   S
    C881   C591      1.49981      .   S
    C882   N897      1.31076      .   S
    C882   C592      1.49981      .   S
    C878   N893      1.31076      .   S
    C878   C588      1.49981      .   S
    C877   N892      1.31076      .   S
    C877   C587      1.49981      .   S
    C49    C48       1.42021      .   S
    C49    H50       0.95166      .   S
    C809   C794      1.42021      .   S
    C809   H824      0.95166      .   S
    C808   C793      1.42021      .   S
    C808   H823      0.95166      .   S
    C797   C782      1.42021      .   S
    C797   H812      0.95166      .   S
    C1243  C652      1.50444      .   S
    C1243  N852      1.33941      .   S
    C1238  C647      1.50444      .   S
    C1238  N847      1.33941      .   S
    C1242  C651      1.50444      .   S
    C1242  N851      1.33941      .   S
    C1239  C648      1.50444      .   S
    C1239  N848      1.33941      .   S
    H65    O64       1.00159      .   S
    H1035  O1020     1.00159      .   S
    H1023  O1008     1.00159      .   S
    H1034  O1019     1.00159      .   S
    N1183  N851      1.32020      .   S
    N1184  N852      1.32020      .   S
    N1180  N848      1.32020      .   S
    N1179  N847      1.32020      .   S
    C1038  O507      1.27529      .   S
    O272   C648      1.26773      .   S
    O276   C652      1.26773      .   S
    C66    O29       1.27529      .   S
    C1050  O519      1.27529      .   S
    O275   C651      1.26773      .   S
    C1049  O518      1.27529      .   S
    O271   C647      1.26773      .   S
    C48    C39       1.45872      .   S
    C782   C657      1.45872      .   S
    C793   C668      1.45872      .   S
    C794   C669      1.45872      .   S
    C1219  C1204     1.48318      .   S
    C1220  C1205     1.48318      .   S
    C1231  C1216     1.48318      .   S
    C1232  C1217     1.48318      .   S
    O468   C588      1.25313      .   S
    O471   C591      1.25313      .   S
    O472   C592      1.25313      .   S
    O467   C587      1.25313      .   S
    C647   O256      1.26140      .   S
    C648   O257      1.26140      .   S
    C651   O260      1.26140      .   S
    C652   O261      1.26140      .   S
    C587   O213      1.27282      .   S
    C588   O214      1.27282      .   S
    C591   O217      1.27282      .   S
    C592   O84       1.27282      .   S
    O67    C39       1.25436      .   S
    O1064  C668      1.25436      .   S
    O1065  C669      1.25436      .   S
    O1053  C657      1.25436      .   S
    Zr2    O64       2.23054      .   S
    Zr2    O61       2.04619  1_655   S
    Zr99   O1008     2.23054      .   S
    Zr99   O964      2.04619  1_455   S
    Zr110  O1019     2.23054      .   S
    Zr110  O974      2.04619      .   S
    Zr111  O1020     2.23054      .   S
    Zr111  O975      2.04619      .   S
    C39    O21       1.26166      .   S
    C657   O375      1.26166      .   S
    C668   O386      1.26166      .   S
    C669   O387      1.26166      .   S
    O29    Zr6       2.21144      .   S
    O518   Zr174     2.21144      .   S
    O507   Zr163     2.21144      .   S
    O519   Zr175     2.21144      .   S
    Zr5    O62       2.23786      .   S
    Zr5    O8        2.07339  1_455   S
    Zr144  O978      2.23786      .   S
    Zr144  O193      2.07339  1_655   S
    Zr155  O989      2.23786      .   S
    Zr155  O204      2.07339      .   S
    Zr156  O990      2.23786      .   S
    Zr156  O205      2.07339      .   S
    O61    Zr6       2.03365      .   S
    O974   Zr174     2.03365      .   S
    O975   Zr175     2.03365      .   S
    O964   Zr163     2.03365      .   S
    O260   Zr114     2.22163      .   S
    O256   Zr126     2.22163      .   S
    O257   Zr3       2.22163      .   S
    O261   Zr125     2.22163      .   S
    O217   Zr175     2.18437      .   S
    O213   Zr163     2.18437      .   S
    O214   Zr174     2.18437      .   S
    O84    Zr6       2.18437      .   S
    C1217  N1172     1.35627      .   S
    C1217  C1097     1.35551      .   S
    C1205  N1160     1.35627      .   S
    C1205  C1085     1.35551      .   S
    C1204  N1159     1.35627      .   S
    C1204  C1084     1.35551      .   S
    C1216  N1171     1.35627      .   S
    C1216  C1096     1.35551      .   S
    O21    Zr3       2.20954      .   S
    O387   Zr126     2.20954      .   S
    O375   Zr114     2.20954      .   S
    O386   Zr125     2.20954      .   S
    N1160  N1145     1.33553      .   S
    N1159  N1144     1.33553      .   S
    N1171  N1156     1.33553      .   S
    N1172  N1157     1.33553      .   S
    H11    O10       0.99990      .   S
    H248   O233      0.99990      .   S
    H247   O232      0.99990      .   S
    H236   O221      0.99990      .   S
    O10    Zr4       2.22841  1_455   S
    O233   Zr141     2.22841      .   S
    O221   Zr129     2.22841  1_655   S
    O232   Zr140     2.22841      .   S
    O7     Zr3       2.07127      .   S
    O7     Zr4       2.06761      .   S
    O190   Zr126     2.07127      .   S
    O190   Zr141     2.06761      .   S
    O189   Zr125     2.07127      .   S
    O189   Zr140     2.06761      .   S
    O178   Zr114     2.07127      .   S
    O178   Zr129     2.06761      .   S
    Zr6    O17       2.20252      .   S
    Zr6    O342      2.21385      .   S
    Zr6    O60       2.03960      .   S
    Zr174  O337      2.20252      .   S
    Zr174  O354      2.21385      .   S
    Zr174  O960      2.03960      .   S
    Zr163  O326      2.20252      .   S
    Zr163  O355      2.21385      .   S
    Zr163  O949      2.03960      .   S
    Zr175  O338      2.20252      .   S
    Zr175  O343      2.21385      .   S
    Zr175  O961      2.03960      .   S
    C1097  H1112     0.94816  1_565   S
    C1097  C751      1.39295      .   S
    C1096  H1111     0.94816      .   S
    C1096  C750      1.39295      .   S
    C1084  H1099     0.94816  1_545   S
    C1084  C738      1.39295      .   S
    C1085  H1100     0.94816      .   S
    C1085  C739      1.39295      .   S
    Zr3    O8        2.07096      .   S
    Zr3    O309      2.21872      .   S
    Zr3    O28       2.20215      .   S
    Zr126  O205      2.07096      .   S
    Zr126  O310      2.21872      .   S
    Zr126  O504      2.20215      .   S
    Zr114  O193      2.07096      .   S
    Zr114  O298      2.21872      .   S
    Zr114  O492      2.20215      .   S
    Zr125  O204      2.07096      .   S
    Zr125  O297      2.21872      .   S
    Zr125  O503      2.20215      .   S
    O62    H63       1.00052      .   S
    O990   H1005     1.00052      .   S
    O989   H1004     1.00052      .   S
    O978   H993      1.00052      .   S
    N1156  C750      1.37384      .   S
    N1144  C738      1.37384      .   S
    N1145  C739      1.37384      .   S
    N1157  C751      1.37384      .   S
    O17    C31       1.27742      .   S
    O326   C537      1.27742      .   S
    O337   C548      1.27742      .   S
    O338   C549      1.27742      .   S
    C738   C858      1.48314      .   S
    C739   C859      1.48314      .   S
    C750   C870      1.48314      .   S
    C751   C871      1.48314      .   S
    O309   C700      1.26311      .   S
    O310   C701      1.26311      .   S
    O297   C688      1.26311      .   S
    O298   C689      1.26311      .   S
    O342   C703      1.26042      .   S
    O354   C363      1.26042      .   S
    O355   C364      1.26042      .   S
    O343   C704      1.26042      .   S
    O60    Zr19      2.05329      .   S
    O949   Zr82      2.05329      .   S
    O960   Zr95      2.05329      .   S
    O961   Zr96      2.05329      .   S
    Zr4    O23       2.23529      .   S
    Zr4    O319      2.17418      .   S
    Zr140  O416      2.23529      .   S
    Zr140  O315      2.17418      .   S
    Zr141  O417      2.23529      .   S
    Zr141  O314      2.17418      .   S
    Zr129  O405      2.23529      .   S
    Zr129  O318      2.17418      .   S
    O28    C40       1.25115      .   S
    O492   C672      1.25115      .   S
    O503   C683      1.25115      .   S
    O504   C684      1.25115      .   S
    C688   O157      1.26863      .   S
    C688   C568      1.46458      .   S
    C701   O374      1.26863      .   S
    C701   C581      1.46458      .   S
    C689   O158      1.26863      .   S
    C689   C569      1.46458      .   S
    C700   O373      1.26863      .   S
    C700   C580      1.46458      .   S
    N947   C581      1.37856      .   S
    N947   N1082     1.33892      .   S
    N946   C580      1.37856      .   S
    N946   N1081     1.33892      .   S
    N935   C569      1.37856      .   S
    N935   N1070     1.33892      .   S
    N934   C568      1.37856      .   S
    N934   N1069     1.33892      .   S
    C549   O402      1.24178      .   S
    C549   C609      1.49278      .   S
    C31    O22       1.24178      .   S
    C31    C35       1.49278      .   S
    C537   O390      1.24178      .   S
    C537   C597      1.49278      .   S
    C548   O401      1.24178      .   S
    C548   C608      1.49278      .   S
    Zr19   O30       2.25084  1_455   S
    Zr82   O522      2.25084  1_655   S
    Zr95   O533      2.25084      .   S
    Zr96   O534      2.25084      .   S
    O23    H24       0.99793      .   S
    O417   H432      0.99793      .   S
    O405   H420      0.99793      .   S
    O416   H431      0.99793      .   S
    C703   O282      1.25764      .   S
    C703   C828      1.41764      .   S
    C704   O283      1.25764      .   S
    C704   C829      1.41764      .   S
    C363   O294      1.25764      .   S
    C363   C840      1.41764      .   S
    C364   O295      1.25764      .   S
    C364   C841      1.41764      .   S
    C581   C916      1.37131      .   S
    C580   C915      1.37131      .   S
    C569   C904      1.37131      .   S
    C568   C903      1.37131      .   S
    C683   O533      1.25874      .   S
    C683   C623      1.49278      .   S
    C40    O30       1.25874      .   S
    C40    C36       1.49278      .   S
    C684   O534      1.25874      .   S
    C684   C624      1.49278      .   S
    C672   O522      1.25874      .   S
    C672   C612      1.49278      .   S
    N1082  C1202     1.36668      .   S
    N1081  C1201     1.36668      .   S
    N1070  C1191     1.36668      .   S
    N1069  C1190     1.36668      .   S
    C859   O554      1.28769      .   S
    C859   O437      1.28267      .   S
    C858   O553      1.28769  1_545   S
    C858   O436      1.28267      .   S
    C870   O565      1.28769      .   S
    C870   O448      1.28267      .   S
    C871   O566      1.28769  1_565   S
    C871   O449      1.28267      .   S
    N766   C841      1.41969      .   S
    N766   N781      1.42025      .   S
    N753   C828      1.41969      .   S
    N753   N768      1.42025      .   S
    N754   C829      1.41969      .   S
    N754   N769      1.42025      .   S
    N765   C840      1.41969      .   S
    N765   N780      1.42025      .   S
    H72    C71       0.95047      .   S
    H1140  C1125     0.95047      .   S
    H1139  C1124     0.95047      .   S
    H1128  C1113     0.95047      .   S
    H722   C365      0.95110      .   S
    H733   C718      0.95110      .   S
    H44    C43       0.95110      .   S
    H734   C719      0.95110      .   S
    C35    C71       1.34858      .   S
    C35    N58       1.32464      .   S
    C597   C1113     1.34858      .   S
    C597   N452      1.32464      .   S
    C608   C1124     1.34858      .   S
    C608   N463      1.32464      .   S
    C609   C1125     1.34858      .   S
    C609   N930      1.32464      .   S
    C841   C811      1.41901      .   S
    C840   C810      1.41901      .   S
    C829   C799      1.41901      .   S
    C828   C798      1.41901      .   S
    C71    C54       1.38746      .   S
    C1113  C872      1.38746      .   S
    C1125  C884      1.38746      .   S
    C1124  C883      1.38746      .   S
    O448   Zr80      2.19862      .   S
    O449   Zr81      2.19862      .   S
    O436   Zr145     2.19862      .   S
    O437   Zr146     2.19862      .   S
    C43    C36       1.38458      .   S
    C43    C79       1.35892      .   S
    C365   C612      1.38458      .   S
    C365   C1233     1.35892      .   S
    C719   C624      1.38458      .   S
    C719   C1245     1.35892      .   S
    C718   C623      1.38458      .   S
    C718   C1244     1.35892      .   S
    C624   N1186     1.32159      .   S
    C612   N1174     1.32159      .   S
    C623   N1185     1.32159      .   S
    C36    N75       1.32159      .   S
    N781   C796      1.42040      .   S
    N780   C795      1.42040      .   S
    N769   C784      1.42040      .   S
    N768   C783      1.42040      .   S
    C916   C1202     1.38039      .   S
    C916   H451      0.94928      .   S
    C915   C1201     1.38039      .   S
    C915   H450      0.94928      .   S
    C904   C1191     1.38039      .   S
    C904   H919      0.94928      .   S
    C903   C1190     1.38039      .   S
    C903   H918      0.94928      .   S
    C1202  C1052     1.47443      .   S
    C1190  C1039     1.47443      .   S
    C1201  C1051     1.47443      .   S
    C1191  C1040     1.47443      .   S
    O315   C1222     1.28388      .   S
    O319   C1226     1.28388  1_655   S
    O318   C1225     1.28388  1_455   S
    O314   C1221     1.28388      .   S
    N58    N55       1.31686      .   S
    N930   N899      1.31686      .   S
    N452   N887      1.31686      .   S
    N463   N898      1.31686      .   S
    O629   C1040     1.26099      .   S
    O629   Zr101     2.24497      .   S
    O640   C1051     1.26099      .   S
    O640   Zr112     2.24497      .   S
    O641   C1052     1.26099      .   S
    O641   Zr113     2.24497      .   S
    O628   C1039     1.26099      .   S
    O628   Zr100     2.24497      .   S
    O484   C1225     1.27840      .   S
    O480   C1221     1.27840      .   S
    O485   C1226     1.27840      .   S
    O481   C1222     1.27840      .   S
    C54    N55       1.31076      .   S
    C54    C34       1.49981      .   S
    C883   N898      1.31076      .   S
    C883   C593      1.49981      .   S
    C884   N899      1.31076      .   S
    C884   C594      1.49981      .   S
    C872   N887      1.31076      .   S
    C872   C582      1.49981      .   S
    C799   C784      1.42021      .   S
    C799   H814      0.95166      .   S
    C811   C796      1.42021      .   S
    C811   H826      0.95166      .   S
    C798   C783      1.42021      .   S
    C798   H813      0.95166      .   S
    C810   C795      1.42021      .   S
    C810   H825      0.95166      .   S
    C79    C38       1.50444      .   S
    C79    N52       1.33941      .   S
    C1233  C642      1.50444      .   S
    C1233  N842      1.33941      .   S
    C1244  C653      1.50444      .   S
    C1244  N853      1.33941      .   S
    C1245  C654      1.50444      .   S
    C1245  N854      1.33941      .   S
    H1024  O1009     1.00159      .   S
    H1025  O1010     1.00159      .   S
    H1036  O1021     1.00159      .   S
    H1037  O1022     1.00159      .   S
    N75    N52       1.32020      .   S
    N1174  N842      1.32020      .   S
    N1185  N853      1.32020      .   S
    N1186  N854      1.32020      .   S
    C1052  O521      1.27529      .   S
    O13    C38       1.26773      .   S
    C1039  O508      1.27529      .   S
    C1040  O509      1.27529      .   S
    C1051  O520      1.27529      .   S
    O266   C642      1.26773      .   S
    O277   C653      1.26773      .   S
    O278   C654      1.26773      .   S
    C783   C658      1.45872      .   S
    C784   C659      1.45872      .   S
    C795   C670      1.45872      .   S
    C796   C671      1.45872      .   S
    C1221  C1206     1.48318      .   S
    C1222  C1207     1.48318      .   S
    C1225  C1210     1.48318  1_655   S
    C1226  C1211     1.48318  1_455   S
    O26    C34       1.25313      .   S
    O473   C593      1.25313      .   S
    O474   C594      1.25313      .   S
    O218   C582      1.25313      .   S
    C653   O262      1.26140      .   S
    C642   O251      1.26140      .   S
    C38    O12       1.26140      .   S
    C654   O263      1.26140      .   S
    C34    O9        1.27282      .   S
    C594   O86       1.27282      .   S
    C582   O208      1.27282      .   S
    C593   O85       1.27282      .   S
    O1055  C659      1.25436      .   S
    O1066  C670      1.25436      .   S
    O1054  C658      1.25436      .   S
    O1067  C671      1.25436      .   S
    Zr113  O1022     2.23054  1_545   S
    Zr113  O977      2.04619      .   S
    Zr100  O1009     2.23054  1_565   S
    Zr100  O948      2.04619      .   S
    Zr101  O1010     2.23054      .   S
    Zr101  O965      2.04619      .   S
    Zr112  O1021     2.23054      .   S
    Zr112  O976      2.04619      .   S
    C658   O376      1.26166      .   S
    C659   O377      1.26166      .   S
    C670   O388      1.26166      .   S
    C671   O389      1.26166      .   S
    O509   Zr165     2.21144      .   S
    O520   Zr176     2.21144      .   S
    O521   Zr177     2.21144      .   S
    O508   Zr164     2.21144      .   S
    Zr146  O980      2.23786      .   S
    Zr146  O195      2.07339      .   S
    Zr145  O979      2.23786      .   S
    Zr145  O194      2.07339      .   S
    Zr80   O991      2.23786      .   S
    Zr80   O206      2.07339      .   S
    Zr81   O992      2.23786      .   S
    Zr81   O207      2.07339      .   S
    O948   Zr164     2.03365      .   S
    O965   Zr165     2.03365      .   S
    O976   Zr176     2.03365      .   S
    O977   Zr177     2.03365      .   S
    O12    Zr128     2.22163  1_545   S
    O251   Zr115     2.22163  1_565   S
    O263   Zr127     2.22163      .   S
    O262   Zr116     2.22163      .   S
    O9     Zr165     2.18437      .   S
    O86    Zr164     2.18437  1_545   S
    O85    Zr177     2.18437  1_565   S
    O208   Zr176     2.18437      .   S
    C1210  N1165     1.35627      .   S
    C1210  C1090     1.35551  1_455   S
    C1207  N1162     1.35627      .   S
    C1207  C1087     1.35551      .   S
    C1211  N1166     1.35627      .   S
    C1211  C1091     1.35551  1_655   S
    C1206  N1161     1.35627      .   S
    C1206  C1086     1.35551      .   S
    O389   Zr128     2.20954      .   S
    O388   Zr127     2.20954      .   S
    O377   Zr116     2.20954      .   S
    O376   Zr115     2.20954      .   S
    N1161  N1146     1.33553      .   S
    N1162  N1147     1.33553      .   S
    N1165  N1150     1.33553      .   S
    N1166  N1151     1.33553      .   S
    H237   O222      0.99990      .   S
    H238   O223      0.99990      .   S
    H249   O234      0.99990      .   S
    H250   O235      0.99990      .   S
    O235   Zr143     2.22841      .   S
    O234   Zr142     2.22841      .   S
    O222   Zr130     2.22841      .   S
    O223   Zr131     2.22841      .   S
    O191   Zr127     2.07127      .   S
    O191   Zr142     2.06761      .   S
    O180   Zr116     2.07127      .   S
    O180   Zr131     2.06761      .   S
    O179   Zr115     2.07127  1_565   S
    O179   Zr130     2.06761      .   S
    O192   Zr128     2.07127  1_545   S
    O192   Zr143     2.06761      .   S
    Zr164  O327      2.20252      .   S
    Zr164  O344      2.21385  1_565   S
    Zr164  O950      2.03960      .   S
    Zr165  O328      2.20252      .   S
    Zr165  O349      2.21385      .   S
    Zr165  O951      2.03960      .   S
    Zr176  O339      2.20252      .   S
    Zr176  O348      2.21385      .   S
    Zr176  O962      2.03960      .   S
    Zr177  O340      2.20252      .   S
    Zr177  O345      2.21385  1_545   S
    Zr177  O963      2.03960      .   S
    C1086  H1101     0.94816      .   S
    C1086  C740      1.39295      .   S
    C1087  H1102     0.94816      .   S
    C1087  C741      1.39295      .   S
    C1090  H1105     0.94816      .   S
    C1090  C744      1.39295  1_655   S
    C1091  H1106     0.94816      .   S
    C1091  C745      1.39295  1_455   S
    Zr128  O207      2.07096      .   S
    Zr128  O304      2.21872  1_565   S
    Zr128  O506      2.20215      .   S
    Zr127  O206      2.07096      .   S
    Zr127  O299      2.21872      .   S
    Zr127  O505      2.20215      .   S
    Zr116  O195      2.07096      .   S
    Zr116  O300      2.21872      .   S
    Zr116  O494      2.20215      .   S
    Zr115  O194      2.07096      .   S
    Zr115  O303      2.21872  1_545   S
    Zr115  O493      2.20215      .   S
    O991   H1006     1.00052      .   S
    O992   H1007     1.00052      .   S
    O980   H995      1.00052      .   S
    O979   H994      1.00052      .   S
    N1146  C740      1.37384      .   S
    N1147  C741      1.37384      .   S
    N1150  C744      1.37384      .   S
    N1151  C745      1.37384      .   S
    O340   C551      1.27742      .   S
    O339   C550      1.27742      .   S
    O328   C539      1.27742      .   S
    O327   C538      1.27742      .   S
    C740   C860      1.48314      .   S
    C741   C861      1.48314      .   S
    C744   C864      1.48314      .   S
    C745   C865      1.48314      .   S
    O304   C695      1.26311      .   S
    O303   C694      1.26311      .   S
    O300   C691      1.26311      .   S
    O299   C690      1.26311      .   S
    O349   C358      1.26042      .   S
    O345   C706      1.26042      .   S
    O348   C357      1.26042      .   S
    O344   C705      1.26042      .   S
    O951   Zr1       2.05329      .   S
    O962   Zr97      2.05329      .   S
    O963   Zr98      2.05329  1_545   S
    O950   Zr83      2.05329  1_565   S
    Zr143  O419      2.23529  1_545   S
    Zr142  O418      2.23529      .   S
    Zr131  O407      2.23529      .   S
    Zr130  O406      2.23529  1_565   S
    O493   C673      1.25115      .   S
    O506   C686      1.25115      .   S
    O494   C674      1.25115      .   S
    O505   C685      1.25115      .   S
    C695   O368      1.26863      .   S
    C695   C575      1.46458      .   S
    C694   O367      1.26863      .   S
    C694   C574      1.46458      .   S
    C691   O160      1.26863      .   S
    C691   C571      1.46458      .   S
    C690   O159      1.26863      .   S
    C690   C570      1.46458      .   S
    N936   C570      1.37856      .   S
    N936   N1071     1.33892      .   S
    N937   C571      1.37856      .   S
    N937   N1072     1.33892      .   S
    N940   C574      1.37856      .   S
    N940   N1075     1.33892      .   S
    N941   C575      1.37856      .   S
    N941   N1076     1.33892      .   S
    C551   O404      1.24178      .   S
    C551   C611      1.49278      .   S
    C550   O403      1.24178      .   S
    C550   C610      1.49278      .   S
    C539   O392      1.24178      .   S
    C539   C599      1.49278      .   S
    C538   O391      1.24178      .   S
    C538   C598      1.49278      .   S
    Zr98   O536      2.25084      .   S
    Zr97   O535      2.25084      .   S
    Zr1    O524      2.25084      .   S
    Zr83   O523      2.25084      .   S
    O418   H433      0.99793      .   S
    O419   H434      0.99793      .   S
    O407   H422      0.99793      .   S
    O406   H421      0.99793      .   S
    C706   O285      1.25764      .   S
    C706   C831      1.41764      .   S
    C705   O284      1.25764      .   S
    C705   C830      1.41764      .   S
    C357   O288      1.25764      .   S
    C357   C834      1.41764      .   S
    C358   O289      1.25764      .   S
    C358   C835      1.41764      .   S
    C674   O524      1.25874      .   S
    C685   O535      1.25874      .   S
    C686   O536      1.25874      .   S
    C673   O523      1.25874      .   S
    C861   O556      1.28769      .   S
    C861   O439      1.28267      .   S
    C865   O560      1.28769  1_655   S
    C865   O443      1.28267      .   S
    C860   O555      1.28769      .   S
    C860   O438      1.28267      .   S
    C864   O559      1.28769  1_455   S
    C864   O442      1.28267      .   S
    N759   C834      1.41969      .   S
    N760   C835      1.41969      .   S
    N756   C831      1.41969      .   S
    N755   C830      1.41969      .   S
    H1130  C1115     0.95047      .   S
    H1141  C1126     0.95047      .   S
    H1129  C1114     0.95047      .   S
    H1142  C1127     0.95047      .   S
    H736   C721      0.95110      .   S
    H735   C720      0.95110      .   S
    H724   C709      0.95110      .   S
    H723   C366      0.95110      .   S
    C611   C1127     1.34858      .   S
    C610   C1126     1.34858      .   S
    C599   C1115     1.34858      .   S
    C598   C1114     1.34858      .   S
    O7     Zr2       2.07970      .   S
    O8     Zr19      2.07838  1_655   S
    O10    Zr2       2.24090  1_455   S
    O10    Zr6       2.31787      .   S
    O13    Zr113     2.25711      .   S
    O14    Zr89      2.28985      .   S
    O20    Zr138     2.24427      .   S
    O22    Zr4       2.28446  1_455   S
    O23    Zr19      2.24038  1_655   S
    O23    Zr3       2.24669      .   S
    O26    Zr146     2.31653      .   S
    O27    Zr92      2.26690      .   S
    O32    Zr2       2.25457      .   S
    O60    Zr4       2.07313  1_455   S
    O61    Zr5       2.07056      .   S
    O62    Zr19      2.25091      .   S
    O62    Zr6       2.33901      .   S
    O64    Zr3       2.24590      .   S
    O64    Zr5       2.24168  1_655   S
    O67    Zr5       2.27264  1_655   S
    O178   Zr99      2.07970      .   S
    O179   Zr100     2.07970      .   S
    O180   Zr101     2.07970      .   S
    O181   Zr102     2.07970      .   S
    O182   Zr103     2.07970      .   S
    O183   Zr104     2.07970      .   S
    O184   Zr105     2.07970      .   S
    O185   Zr106     2.07970      .   S
    O186   Zr107     2.07970      .   S
    O187   Zr108     2.07970      .   S
    O188   Zr109     2.07970      .   S
    O189   Zr110     2.07970      .   S
    O190   Zr111     2.07970      .   S
    O191   Zr112     2.07970      .   S
    O192   Zr113     2.07970      .   S
    O193   Zr82      2.07838  1_455   S
    O194   Zr83      2.07838      .   S
    O195   Zr1       2.07838      .   S
    O196   Zr0       2.07838      .   S
    O197   Zr88      2.07838      .   S
    O198   Zr89      2.07838      .   S
    O199   Zr90      2.07838      .   S
    O200   Zr91      2.07838  1_655   S
    O201   Zr92      2.07838  1_455   S
    O202   Zr93      2.07838      .   S
    O203   Zr94      2.07838      .   S
    O204   Zr95      2.07838      .   S
    O205   Zr96      2.07838      .   S
    O206   Zr97      2.07838      .   S
    O207   Zr98      2.07838      .   S
    O221   Zr99      2.24090  1_655   S
    O221   Zr163     2.31787      .   S
    O222   Zr100     2.24090      .   S
    O222   Zr164     2.31787      .   S
    O223   Zr101     2.24090      .   S
    O223   Zr165     2.31787      .   S
    O224   Zr102     2.24090      .   S
    O224   Zr166     2.31787      .   S
    O225   Zr103     2.24090      .   S
    O225   Zr167     2.31787      .   S
    O226   Zr104     2.24090      .   S
    O226   Zr168     2.31787      .   S
    O227   Zr105     2.24090      .   S
    O227   Zr169     2.31787      .   S
    O228   Zr106     2.24090  1_455   S
    O228   Zr170     2.31787      .   S
    O229   Zr107     2.24090  1_655   S
    O229   Zr171     2.31787      .   S
    O230   Zr108     2.24090      .   S
    O230   Zr172     2.31787      .   S
    O231   Zr109     2.24090      .   S
    O231   Zr173     2.31787      .   S
    O232   Zr110     2.24090      .   S
    O232   Zr174     2.31787      .   S
    O233   Zr111     2.24090      .   S
    O233   Zr175     2.31787      .   S
    O234   Zr112     2.24090      .   S
    O234   Zr176     2.31787      .   S
    O235   Zr113     2.24090      .   S
    O235   Zr177     2.31787      .   S
    O266   Zr100     2.25711      .   S
    O267   Zr107     2.25711      .   S
    O268   Zr102     2.25711      .   S
    O269   Zr109     2.25711      .   S
    O270   Zr104     2.25711      .   S
    O271   Zr111     2.25711      .   S
    O272   Zr2       2.25711      .   S
    O273   Zr105     2.25711      .   S
    O274   Zr108     2.25711      .   S
    O275   Zr99      2.25711      .   S
    O276   Zr110     2.25711      .   S
    O277   Zr101     2.25711      .   S
    O278   Zr112     2.25711      .   S
    O279   Zr103     2.25711      .   S
    O280   Zr106     2.25711      .   S
    O281   Zr94      2.28985      .   S
    O282   Zr19      2.28985      .   S
    O283   Zr96      2.28985      .   S
    O284   Zr83      2.28985      .   S
    O285   Zr98      2.28985      .   S
    O286   Zr0       2.28985      .   S
    O287   Zr92      2.28985      .   S
    O288   Zr97      2.28985      .   S
    O289   Zr1       2.28985      .   S
    O290   Zr91      2.28985      .   S
    O291   Zr88      2.28985      .   S
    O292   Zr93      2.28985      .   S
    O293   Zr90      2.28985      .   S
    O294   Zr95      2.28985      .   S
    O295   Zr82      2.28985      .   S
    O356   Zr135     2.24427      .   S
    O157   Zr140     2.24427      .   S
    O158   Zr129     2.24427      .   S
    O159   Zr142     2.24427      .   S
    O160   Zr131     2.24427      .   S
    O161   Zr136     2.24427      .   S
    O162   Zr133     2.24427      .   S
    O367   Zr130     2.24427      .   S
    O368   Zr143     2.24427      .   S
    O369   Zr132     2.24427      .   S
    O370   Zr137     2.24427      .   S
    O371   Zr134     2.24427      .   S
    O372   Zr139     2.24427      .   S
    O373   Zr4       2.24427      .   S
    O374   Zr141     2.24427      .   S
    O390   Zr129     2.28446  1_655   S
    O391   Zr130     2.28446      .   S
    O392   Zr131     2.28446      .   S
    O393   Zr132     2.28446      .   S
    O394   Zr133     2.28446      .   S
    O395   Zr134     2.28446      .   S
    O396   Zr135     2.28446      .   S
    O397   Zr136     2.28446  1_455   S
    O398   Zr137     2.28446  1_655   S
    O399   Zr138     2.28446      .   S
    O400   Zr139     2.28446      .   S
    O401   Zr140     2.28446      .   S
    O402   Zr141     2.28446      .   S
    O403   Zr142     2.28446      .   S
    O404   Zr143     2.28446      .   S
    O405   Zr82      2.24038  1_455   S
    O405   Zr114     2.24669      .   S
    O406   Zr83      2.24038      .   S
    O406   Zr115     2.24669      .   S
    O407   Zr1       2.24038      .   S
    O407   Zr116     2.24669      .   S
    O408   Zr0       2.24038      .   S
    O408   Zr117     2.24669      .   S
    O409   Zr88      2.24038      .   S
    O409   Zr118     2.24669      .   S
    O410   Zr89      2.24038      .   S
    O410   Zr119     2.24669      .   S
    O411   Zr90      2.24038      .   S
    O411   Zr120     2.24669      .   S
    O412   Zr91      2.24038  1_655   S
    O412   Zr121     2.24669      .   S
    O413   Zr92      2.24038  1_455   S
    O413   Zr122     2.24669      .   S
    O414   Zr93      2.24038      .   S
    O414   Zr123     2.24669      .   S
    O415   Zr94      2.24038      .   S
    O415   Zr124     2.24669      .   S
    O416   Zr95      2.24038      .   S
    O416   Zr125     2.24669      .   S
    O417   Zr96      2.24038      .   S
    O417   Zr126     2.24669      .   S
    O418   Zr97      2.24038      .   S
    O418   Zr127     2.24669      .   S
    O419   Zr98      2.24038      .   S
    O419   Zr128     2.24669      .   S
    O218   Zr80      2.31653      .   S
    O219   Zr148     2.31653      .   S
    O464   Zr151     2.31653      .   S
    O465   Zr150     2.31653      .   S
    O466   Zr153     2.31653      .   S
    O467   Zr144     2.31653      .   S
    O468   Zr155     2.31653      .   S
    O469   Zr154     2.31653      .   S
    O470   Zr149     2.31653      .   S
    O471   Zr156     2.31653      .   S
    O472   Zr5       2.31653      .   S
    O473   Zr81      2.31653      .   S
    O474   Zr145     2.31653      .   S
    O475   Zr152     2.31653      .   S
    O476   Zr147     2.31653      .   S
    O477   Zr91      2.26690      .   S
    O478   Zr94      2.26690      .   S
    O479   Zr93      2.26690      .   S
    O480   Zr96      2.26690      .   S
    O481   Zr95      2.26690      .   S
    O482   Zr98      2.26690  1_554   S
    O483   Zr97      2.26690  1_554   S
    O484   Zr82      2.26690      .   S
    O485   Zr19      2.26690      .   S
    O486   Zr1       2.26690  1_554   S
    O487   Zr83      2.26690  1_554   S
    O488   Zr88      2.26690      .   S
    O489   Zr0       2.26690      .   S
    O490   Zr90      2.26690      .   S
    O491   Zr89      2.26690      .   S
    O552   Zr99      2.25457      .   S
    O553   Zr100     2.25457      .   S
    O554   Zr101     2.25457      .   S
    O555   Zr102     2.25457  1_556   S
    O556   Zr103     2.25457  1_556   S
    O557   Zr104     2.25457      .   S
    O558   Zr105     2.25457      .   S
    O559   Zr106     2.25457  1_556   S
    O560   Zr107     2.25457  1_556   S
    O561   Zr108     2.25457      .   S
    O562   Zr109     2.25457      .   S
    O563   Zr110     2.25457      .   S
    O564   Zr111     2.25457      .   S
    O565   Zr112     2.25457      .   S
    O566   Zr113     2.25457      .   S
    O949   Zr129     2.07313  1_655   S
    O950   Zr130     2.07313      .   S
    O951   Zr131     2.07313      .   S
    O952   Zr132     2.07313      .   S
    O953   Zr133     2.07313      .   S
    O954   Zr134     2.07313      .   S
    O955   Zr135     2.07313      .   S
    O956   Zr136     2.07313  1_455   S
    O957   Zr137     2.07313  1_655   S
    O958   Zr138     2.07313      .   S
    O959   Zr139     2.07313      .   S
    O960   Zr140     2.07313      .   S
    O961   Zr141     2.07313      .   S
    O962   Zr142     2.07313      .   S
    O963   Zr143     2.07313      .   S
    O964   Zr144     2.07056      .   S
    O948   Zr145     2.07056  1_565   S
    O965   Zr146     2.07056      .   S
    O966   Zr147     2.07056      .   S
    O967   Zr148     2.07056      .   S
    O968   Zr149     2.07056  1_565   S
    O969   Zr150     2.07056      .   S
    O970   Zr151     2.07056      .   S
    O971   Zr152     2.07056      .   S
    O972   Zr153     2.07056      .   S
    O973   Zr154     2.07056  1_545   S
    O974   Zr155     2.07056      .   S
    O975   Zr156     2.07056      .   S
    O976   Zr80      2.07056      .   S
    O977   Zr81      2.07056  1_545   S
    O978   Zr82      2.25091      .   S
    O978   Zr163     2.33901      .   S
    O979   Zr83      2.25091      .   S
    O979   Zr164     2.33901  1_545   S
    O980   Zr1       2.25091      .   S
    O980   Zr165     2.33901      .   S
    O981   Zr0       2.25091      .   S
    O981   Zr166     2.33901      .   S
    O982   Zr88      2.25091      .   S
    O982   Zr167     2.33901      .   S
    O983   Zr89      2.25091      .   S
    O983   Zr168     2.33901  1_545   S
    O984   Zr90      2.25091      .   S
    O984   Zr169     2.33901      .   S
    O985   Zr91      2.25091      .   S
    O985   Zr170     2.33901      .   S
    O986   Zr92      2.25091      .   S
    O986   Zr171     2.33901      .   S
    O987   Zr93      2.25091      .   S
    O987   Zr172     2.33901      .   S
    O988   Zr94      2.25091      .   S
    O988   Zr173     2.33901  1_565   S
    O989   Zr95      2.25091      .   S
    O989   Zr174     2.33901      .   S
    O990   Zr96      2.25091      .   S
    O990   Zr175     2.33901      .   S
    O991   Zr97      2.25091      .   S
    O991   Zr176     2.33901      .   S
    O992   Zr98      2.25091      .   S
    O992   Zr177     2.33901  1_565   S
    O1008  Zr114     2.24590      .   S
    O1008  Zr144     2.24168  1_455   S
    O1009  Zr115     2.24590      .   S
    O1009  Zr145     2.24168      .   S
    O1010  Zr116     2.24590      .   S
    O1010  Zr146     2.24168      .   S
    O1011  Zr117     2.24590      .   S
    O1011  Zr147     2.24168      .   S
    O1012  Zr118     2.24590      .   S
    O1012  Zr148     2.24168      .   S
    O1013  Zr119     2.24590      .   S
    O1013  Zr149     2.24168      .   S
    O1014  Zr120     2.24590      .   S
    O1014  Zr150     2.24168      .   S
    O1015  Zr121     2.24590      .   S
    O1015  Zr151     2.24168  1_655   S
    O1016  Zr122     2.24590      .   S
    O1016  Zr152     2.24168  1_455   S
    O1017  Zr123     2.24590      .   S
    O1017  Zr153     2.24168      .   S
    O1018  Zr124     2.24590      .   S
    O1018  Zr154     2.24168      .   S
    O1019  Zr125     2.24590      .   S
    O1019  Zr155     2.24168      .   S
    O1020  Zr126     2.24590      .   S
    O1020  Zr156     2.24168      .   S
    O1021  Zr127     2.24590      .   S
    O1021  Zr80      2.24168      .   S
    O1022  Zr128     2.24590      .   S
    O1022  Zr81      2.24168      .   S
    O1053  Zr144     2.27264  1_455   S
    O1054  Zr145     2.27264      .   S
    O1055  Zr146     2.27264      .   S
    O1056  Zr147     2.27264      .   S
    O1057  Zr148     2.27264      .   S
    O1058  Zr149     2.27264      .   S
    O1059  Zr150     2.27264      .   S
    O1060  Zr151     2.27264  1_655   S
    O1061  Zr152     2.27264  1_455   S
    O1062  Zr153     2.27264      .   S
    O1063  Zr154     2.27264      .   S
    O1064  Zr155     2.27264      .   S
    O1065  Zr156     2.27264      .   S
    O1066  Zr80      2.27264      .   S
    O1067  Zr81      2.27264      .   S
