# CIF file generated by openbabel 2.4.90, see http://openbabel.sf.net
data_I
_chemical_name_common ''
_cell_length_a 39.222
_cell_length_b 26.018
_cell_length_c 27.887
_cell_angle_alpha 90
_cell_angle_beta 90
_cell_angle_gamma 90
_space_group_name_H-M_alt 'P 1'
_space_group_name_Hall 'P 1'
loop_
    _symmetry_equiv_pos_as_xyz
    x,y,z
loop_
    _atom_site_label
    _atom_site_type_symbol
    _atom_site_fract_x
    _atom_site_fract_y
    _atom_site_fract_z
    _atom_site_occupancy
    Zr0     Zr   0.51253   0.19131   0.20101   1.000
    Zr1     Zr   0.23747   0.44131   0.95101   1.000
    Zr2     Zr   0.98690   0.30022   0.55889   1.000
    Zr3     Zr   0.93974   0.21879   0.63324   1.000
    Zr4     Zr   0.98664   0.31888   0.68418   1.000
    Zr5     Zr   0.01232   0.17290   0.57488   1.000
    Zr6     Zr   0.05965   0.27276   0.62667   1.000
    O7      O    0.96218   0.29020   0.62420   1.000
    O8      O    0.98509   0.17840   0.63840   1.000
    O9      O    0.01749   0.33460   0.61870   1.000
    H10     H    0.02540   0.37080   0.61410   1.000
    Zr11    Zr   0.01253   0.19131   0.70101   1.000
    O12     O    0.96593   0.24110   0.70180   1.000
    H13     H    0.95170   0.23900   0.73140   1.000
    O14     O    0.02540   0.26480   0.68120   1.000
    O15     O    0.02508   0.25010   0.57660   1.000
    O16     O    0.04737   0.18550   0.63710   1.000
    H17     H    0.06730   0.16170   0.64000   1.000
    O18     O    0.96573   0.22070   0.56150   1.000
    H19     H    0.95140   0.21030   0.53340   1.000
    Zr20    Zr   0.76232   0.57710   0.82488   1.000
    Zr21    Zr   0.73768   0.92290   0.82488   1.000
    Zr22    Zr   0.98747   0.80869   0.70101   1.000
    Zr23    Zr   0.26253   0.05869   0.95101   1.000
    Zr24    Zr   0.48747   0.80869   0.20101   1.000
    Zr25    Zr   0.76253   0.05869   0.45101   1.000
    Zr26    Zr   0.73747   0.44131   0.45101   1.000
    Zr27    Zr   0.01253   0.69131   0.20101   1.000
    Zr28    Zr   0.98747   0.30869   0.20101   1.000
    Zr29    Zr   0.26253   0.55869   0.45101   1.000
    Zr30    Zr   0.23747   0.94131   0.45101   1.000
    Zr31    Zr   0.51253   0.69131   0.70101   1.000
    Zr32    Zr   0.48747   0.30869   0.70101   1.000
    Zr33    Zr   0.76253   0.55869   0.95101   1.000
    Zr34    Zr   0.73747   0.94131   0.95101   1.000
    Zr35    Zr   0.01310   0.69978   0.55889   1.000
    Zr36    Zr   0.23690   0.94978   0.80889   1.000
    Zr37    Zr   0.26310   0.55022   0.80889   1.000
    Zr38    Zr   0.48690   0.30022   0.05889   1.000
    Zr39    Zr   0.51310   0.69978   0.05889   1.000
    Zr40    Zr   0.73690   0.94978   0.30889   1.000
    Zr41    Zr   0.76310   0.55022   0.30889   1.000
    Zr42    Zr   0.98690   0.80022   0.05889   1.000
    Zr43    Zr   0.01310   0.19978   0.05889   1.000
    Zr44    Zr   0.23690   0.44978   0.30889   1.000
    Zr45    Zr   0.26310   0.05022   0.30889   1.000
    Zr46    Zr   0.48690   0.80022   0.55889   1.000
    Zr47    Zr   0.51310   0.19978   0.55889   1.000
    Zr48    Zr   0.73690   0.44978   0.80889   1.000
    Zr49    Zr   0.76310   0.05022   0.80889   1.000
    Zr50    Zr   0.06026   0.78121   0.63324   1.000
    Zr51    Zr   0.18974   0.03121   0.88324   1.000
    Zr52    Zr   0.31026   0.46879   0.88324   1.000
    Zr53    Zr   0.43974   0.21879   0.13324   1.000
    Zr54    Zr   0.56026   0.78121   0.13324   1.000
    Zr55    Zr   0.68974   0.03121   0.38324   1.000
    Zr56    Zr   0.81026   0.46879   0.38324   1.000
    Zr57    Zr   0.93974   0.71879   0.13324   1.000
    Zr58    Zr   0.06026   0.28121   0.13324   1.000
    Zr59    Zr   0.18974   0.53121   0.38324   1.000
    Zr60    Zr   0.31026   0.96879   0.38324   1.000
    Zr61    Zr   0.43974   0.71879   0.63324   1.000
    Zr62    Zr   0.56026   0.28121   0.63324   1.000
    Zr63    Zr   0.68974   0.53121   0.88324   1.000
    Zr64    Zr   0.81026   0.96879   0.88324   1.000
    Zr65    Zr   0.01336   0.68112   0.68418   1.000
    Zr66    Zr   0.23664   0.93112   0.93418   1.000
    Zr67    Zr   0.26336   0.56888   0.93418   1.000
    Zr68    Zr   0.48664   0.31888   0.18418   1.000
    Zr69    Zr   0.51336   0.68112   0.18418   1.000
    Zr70    Zr   0.73664   0.93112   0.43418   1.000
    Zr71    Zr   0.76336   0.56888   0.43418   1.000
    Zr72    Zr   0.98664   0.81888   0.18418   1.000
    Zr73    Zr   0.01336   0.18112   0.18418   1.000
    Zr74    Zr   0.23664   0.43112   0.43418   1.000
    Zr75    Zr   0.26336   0.06888   0.43418   1.000
    Zr76    Zr   0.48664   0.81888   0.68418   1.000
    Zr77    Zr   0.51336   0.18112   0.68418   1.000
    Zr78    Zr   0.73664   0.43112   0.93418   1.000
    Zr79    Zr   0.76336   0.06888   0.93418   1.000
    Zr80    Zr   0.98768   0.82710   0.57488   1.000
    Zr81    Zr   0.26232   0.07710   0.82488   1.000
    Zr82    Zr   0.23768   0.42290   0.82488   1.000
    Zr83    Zr   0.51232   0.17290   0.07488   1.000
    Zr84    Zr   0.48768   0.82710   0.07488   1.000
    Zr85    Zr   0.76232   0.07710   0.32488   1.000
    Zr86    Zr   0.73768   0.42290   0.32488   1.000
    Zr87    Zr   0.01232   0.67290   0.07488   1.000
    Zr88    Zr   0.98768   0.32710   0.07488   1.000
    Zr89    Zr   0.26232   0.57710   0.32488   1.000
    Zr90    Zr   0.23768   0.92290   0.32488   1.000
    Zr91    Zr   0.51232   0.67290   0.57488   1.000
    Zr92    Zr   0.48768   0.32710   0.57488   1.000
    Zr93    Zr   0.94035   0.72724   0.62667   1.000
    Zr94    Zr   0.30965   0.97724   0.87667   1.000
    Zr95    Zr   0.19035   0.52276   0.87667   1.000
    Zr96    Zr   0.55965   0.27276   0.12667   1.000
    Zr97    Zr   0.44035   0.72724   0.12667   1.000
    Zr98    Zr   0.80965   0.97724   0.37667   1.000
    Zr99    Zr   0.69035   0.52276   0.37667   1.000
    Zr100   Zr   0.05965   0.77276   0.12667   1.000
    Zr101   Zr   0.94035   0.22724   0.12667   1.000
    Zr102   Zr   0.30965   0.47724   0.37667   1.000
    Zr103   Zr   0.19035   0.02276   0.37667   1.000
    Zr104   Zr   0.55965   0.77276   0.62667   1.000
    Zr105   Zr   0.44035   0.22724   0.62667   1.000
    Zr106   Zr   0.80965   0.47724   0.87667   1.000
    Zr107   Zr   0.69035   0.02276   0.87667   1.000
    O108    O    0.03782   0.70980   0.62420   1.000
    O109    O    0.21218   0.95980   0.87420   1.000
    O110    O    0.28782   0.54020   0.87420   1.000
    O111    O    0.46218   0.29020   0.12420   1.000
    O112    O    0.53782   0.70980   0.12420   1.000
    O113    O    0.71218   0.95980   0.37420   1.000
    O114    O    0.78782   0.54020   0.37420   1.000
    O115    O    0.96218   0.79020   0.12420   1.000
    O116    O    0.03782   0.20980   0.12420   1.000
    O117    O    0.21218   0.45980   0.37420   1.000
    O118    O    0.28782   0.04020   0.37420   1.000
    O119    O    0.46218   0.79020   0.62420   1.000
    O120    O    0.53782   0.20980   0.62420   1.000
    O121    O    0.71218   0.45980   0.87420   1.000
    O122    O    0.78782   0.04020   0.87420   1.000
    O123    O    0.01491   0.82160   0.63840   1.000
    O124    O    0.23509   0.07160   0.88840   1.000
    O125    O    0.26491   0.42840   0.88840   1.000
    O126    O    0.48509   0.17840   0.13840   1.000
    O127    O    0.51491   0.82160   0.13840   1.000
    O128    O    0.73509   0.07160   0.38840   1.000
    O129    O    0.76491   0.42840   0.38840   1.000
    O130    O    0.98509   0.67840   0.13840   1.000
    O131    O    0.01491   0.32160   0.13840   1.000
    O132    O    0.23509   0.57160   0.38840   1.000
    O133    O    0.26491   0.92840   0.38840   1.000
    O134    O    0.48509   0.67840   0.63840   1.000
    O135    O    0.51491   0.32160   0.63840   1.000
    O136    O    0.73509   0.57160   0.88840   1.000
    O137    O    0.76491   0.92840   0.88840   1.000
    O138    O    0.98251   0.66540   0.61870   1.000
    O139    O    0.26749   0.91540   0.86870   1.000
    O140    O    0.23251   0.58460   0.86870   1.000
    O141    O    0.51749   0.33460   0.11870   1.000
    O142    O    0.48251   0.66540   0.11870   1.000
    O143    O    0.76749   0.91540   0.36870   1.000
    O144    O    0.73251   0.58460   0.36870   1.000
    O145    O    0.01749   0.83460   0.11870   1.000
    O146    O    0.98251   0.16540   0.11870   1.000
    O147    O    0.26749   0.41540   0.36870   1.000
    O148    O    0.23251   0.08460   0.36870   1.000
    O149    O    0.51749   0.83460   0.61870   1.000
    O150    O    0.48251   0.16540   0.61870   1.000
    O151    O    0.76749   0.41540   0.86870   1.000
    O152    O    0.73251   0.08460   0.86870   1.000
    H153    H    0.97460   0.62920   0.61410   1.000
    H154    H    0.27540   0.87920   0.86410   1.000
    H155    H    0.22460   0.62080   0.86410   1.000
    H156    H    0.52540   0.37080   0.11410   1.000
    H157    H    0.47460   0.62920   0.11410   1.000
    H158    H    0.77540   0.87920   0.36410   1.000
    H159    H    0.72460   0.62080   0.36410   1.000
    H160    H    0.02540   0.87080   0.11410   1.000
    H161    H    0.97460   0.12920   0.11410   1.000
    H162    H    0.27540   0.37920   0.36410   1.000
    H163    H    0.22460   0.12080   0.36410   1.000
    H164    H    0.52540   0.87080   0.61410   1.000
    H165    H    0.47460   0.12920   0.61410   1.000
    H166    H    0.77540   0.37920   0.86410   1.000
    H167    H    0.72460   0.12080   0.86410   1.000
    O168    O    0.03407   0.75890   0.70180   1.000
    O169    O    0.21593   0.00890   0.95180   1.000
    O170    O    0.28407   0.49110   0.95180   1.000
    O171    O    0.46593   0.24110   0.20180   1.000
    O172    O    0.53407   0.75890   0.20180   1.000
    O173    O    0.71593   0.00890   0.45180   1.000
    O174    O    0.78407   0.49110   0.45180   1.000
    O175    O    0.96593   0.74110   0.20180   1.000
    O176    O    0.03407   0.25890   0.20180   1.000
    O177    O    0.21593   0.50890   0.45180   1.000
    O178    O    0.28407   0.99110   0.45180   1.000
    O179    O    0.46593   0.74110   0.70180   1.000
    O180    O    0.53407   0.25890   0.70180   1.000
    O181    O    0.71593   0.50890   0.95180   1.000
    O182    O    0.78407   0.99110   0.95180   1.000
    H183    H    0.04830   0.76100   0.73140   1.000
    H184    H    0.20170   0.01100   0.98140   1.000
    H185    H    0.29830   0.48900   0.98140   1.000
    H186    H    0.45170   0.23900   0.23140   1.000
    H187    H    0.54830   0.76100   0.23140   1.000
    H188    H    0.70170   0.01100   0.48140   1.000
    H189    H    0.79830   0.48900   0.48140   1.000
    H190    H    0.95170   0.73900   0.23140   1.000
    H191    H    0.04830   0.26100   0.23140   1.000
    H192    H    0.20170   0.51100   0.48140   1.000
    H193    H    0.29830   0.98900   0.48140   1.000
    H194    H    0.45170   0.73900   0.73140   1.000
    H195    H    0.54830   0.26100   0.73140   1.000
    H196    H    0.70170   0.51100   0.98140   1.000
    H197    H    0.79830   0.98900   0.98140   1.000
    O198    O    0.27508   0.99990   0.82660   1.000
    O199    O    0.97460   0.73520   0.68120   1.000
    O200    O    0.27540   0.98520   0.93120   1.000
    O201    O    0.22460   0.51480   0.93120   1.000
    O202    O    0.52540   0.26480   0.18120   1.000
    O203    O    0.47460   0.73520   0.18120   1.000
    O204    O    0.77540   0.98520   0.43120   1.000
    O205    O    0.72460   0.51480   0.43120   1.000
    O206    O    0.02540   0.76480   0.18120   1.000
    O207    O    0.97460   0.23520   0.18120   1.000
    O208    O    0.27540   0.48520   0.43120   1.000
    O209    O    0.22460   0.01480   0.43120   1.000
    O210    O    0.52540   0.76480   0.68120   1.000
    O211    O    0.47460   0.23520   0.68120   1.000
    O212    O    0.77540   0.48520   0.93120   1.000
    O213    O    0.72460   0.01480   0.93120   1.000
    O214    O    0.97492   0.74990   0.57660   1.000
    O215    O    0.22492   0.50010   0.82660   1.000
    O216    O    0.52508   0.25010   0.07660   1.000
    O217    O    0.47492   0.74990   0.07660   1.000
    O218    O    0.77508   0.99990   0.32660   1.000
    O219    O    0.72492   0.50010   0.32660   1.000
    O220    O    0.02508   0.75010   0.07660   1.000
    O221    O    0.97492   0.24990   0.07660   1.000
    O222    O    0.27508   0.49990   0.32660   1.000
    O223    O    0.22492   0.00010   0.32660   1.000
    O224    O    0.52508   0.75010   0.57660   1.000
    O225    O    0.47492   0.24990   0.57660   1.000
    O226    O    0.77508   0.49990   0.82660   1.000
    O227    O    0.72492   0.00010   0.82660   1.000
    O228    O    0.95263   0.81450   0.63710   1.000
    O229    O    0.29737   0.06450   0.88710   1.000
    O230    O    0.20263   0.43550   0.88710   1.000
    O231    O    0.54737   0.18550   0.13710   1.000
    O232    O    0.45263   0.81450   0.13710   1.000
    O233    O    0.79737   0.06450   0.38710   1.000
    O234    O    0.70263   0.43550   0.38710   1.000
    O235    O    0.04737   0.68550   0.13710   1.000
    O236    O    0.95263   0.31450   0.13710   1.000
    O237    O    0.29737   0.56450   0.38710   1.000
    O238    O    0.20263   0.93550   0.38710   1.000
    O239    O    0.54737   0.68550   0.63710   1.000
    O240    O    0.45263   0.31450   0.63710   1.000
    O241    O    0.79737   0.56450   0.88710   1.000
    O242    O    0.70263   0.93550   0.88710   1.000
    H243    H    0.93270   0.83830   0.64000   1.000
    H244    H    0.31730   0.08830   0.89000   1.000
    H245    H    0.18270   0.41170   0.89000   1.000
    H246    H    0.56730   0.16170   0.14000   1.000
    H247    H    0.43270   0.83830   0.14000   1.000
    H248    H    0.81730   0.08830   0.39000   1.000
    H249    H    0.68270   0.41170   0.39000   1.000
    H250    H    0.06730   0.66170   0.14000   1.000
    H251    H    0.93270   0.33830   0.14000   1.000
    H252    H    0.31730   0.58830   0.39000   1.000
    H253    H    0.18270   0.91170   0.39000   1.000
    H254    H    0.56730   0.66170   0.64000   1.000
    H255    H    0.43270   0.33830   0.64000   1.000
    H256    H    0.81730   0.58830   0.89000   1.000
    H257    H    0.68270   0.91170   0.89000   1.000
    O258    O    0.03427   0.77930   0.56150   1.000
    O259    O    0.21573   0.02930   0.81150   1.000
    O260    O    0.28427   0.47070   0.81150   1.000
    O261    O    0.46573   0.22070   0.06150   1.000
    O262    O    0.53427   0.77930   0.06150   1.000
    O263    O    0.71573   0.02930   0.31150   1.000
    O264    O    0.78427   0.47070   0.31150   1.000
    O265    O    0.96573   0.72070   0.06150   1.000
    O266    O    0.03427   0.27930   0.06150   1.000
    O267    O    0.21573   0.52930   0.31150   1.000
    O268    O    0.28427   0.97070   0.31150   1.000
    O269    O    0.46573   0.72070   0.56150   1.000
    O270    O    0.53427   0.27930   0.56150   1.000
    O271    O    0.71573   0.52930   0.81150   1.000
    O272    O    0.78427   0.97070   0.81150   1.000
    H273    H    0.04860   0.78970   0.53340   1.000
    H274    H    0.20140   0.03970   0.78340   1.000
    H275    H    0.29860   0.46030   0.78340   1.000
    H276    H    0.45140   0.21030   0.03340   1.000
    H277    H    0.54860   0.78970   0.03340   1.000
    H278    H    0.70140   0.03970   0.28340   1.000
    H279    H    0.79860   0.46030   0.28340   1.000
    H280    H    0.95140   0.71030   0.03340   1.000
    H281    H    0.04860   0.28970   0.03340   1.000
    H282    H    0.20140   0.53970   0.28340   1.000
    H283    H    0.29860   0.96030   0.28340   1.000
    H284    H    0.45140   0.71030   0.53340   1.000
    H285    H    0.54860   0.28970   0.53340   1.000
    H286    H    0.70140   0.53970   0.78340   1.000
    H287    H    0.79860   0.96030   0.78340   1.000
loop_
    _geom_bond_atom_site_label_1
    _geom_bond_atom_site_label_2
    _geom_bond_distance
    _geom_bond_site_symmetry_2
    _ccdc_geom_bond_type
    H277   O262      1.00159      .   S
    H281   O266      1.00159      .   S
    H276   O261      1.00159      .   S
    H280   O265      1.00159      .   S
    Zr43   O266      2.23054      .   S
    Zr43   O221      2.04619  1_455   S
    Zr42   O265      2.23054      .   S
    Zr42   O220      2.04619  1_655   S
    Zr39   O262      2.23054      .   S
    Zr39   O217      2.04619      .   S
    Zr38   O261      2.23054      .   S
    Zr38   O216      2.04619      .   S
    Zr87   O235      2.23786      .   S
    Zr87   O130      2.07339  1_455   S
    Zr83   O231      2.23786      .   S
    Zr83   O126      2.07339      .   S
    Zr84   O232      2.23786      .   S
    Zr84   O127      2.07339      .   S
    Zr88   O236      2.23786      .   S
    Zr88   O131      2.07339  1_655   S
    O221   Zr101     2.03365      .   S
    O220   Zr100     2.03365      .   S
    O217   Zr97      2.03365      .   S
    O216   Zr96      2.03365      .   S
    H160   O145      0.99990      .   S
    H157   O142      0.99990      .   S
    H156   O141      0.99990      .   S
    H161   O146      0.99990      .   S
    O142   Zr69      2.22841      .   S
    O145   Zr72      2.22841  1_455   S
    O141   Zr68      2.22841      .   S
    O146   Zr73      2.22841  1_655   S
    O112   Zr54      2.07127      .   S
    O112   Zr69      2.06761      .   S
    O111   Zr53      2.07127      .   S
    O111   Zr68      2.06761      .   S
    O115   Zr57      2.07127      .   S
    O115   Zr72      2.06761      .   S
    O116   Zr58      2.07127      .   S
    O116   Zr73      2.06761      .   S
    Zr101  O207      2.03960      .   S
    Zr100  O206      2.03960      .   S
    Zr97   O203      2.03960      .   S
    Zr96   O202      2.03960      .   S
    Zr58   O131      2.07096      .   S
    Zr57   O130      2.07096      .   S
    Zr53   O126      2.07096      .   S
    Zr54   O127      2.07096      .   S
    O236   H251      1.00052      .   S
    O232   H247      1.00052      .   S
    O235   H250      1.00052      .   S
    O231   H246      1.00052      .   S
    O207   Zr28      2.05329      .   S
    O202   Zr0       2.05329      .   S
    O203   Zr24      2.05329      .   S
    O206   Zr27      2.05329      .   S
    Zr69   O172      2.23529      .   S
    Zr68   O171      2.23529      .   S
    Zr72   O175      2.23529      .   S
    Zr73   O176      2.23529      .   S
    O171   H186      0.99793      .   S
    O172   H187      0.99793      .   S
    O175   H190      0.99793      .   S
    O176   H191      0.99793      .   S
    H278   O263      1.00159      .   S
    H279   O264      1.00159      .   S
    H282   O267      1.00159      .   S
    H283   O268      1.00159      .   S
    Zr40   O263      2.23054  1_565   S
    Zr40   O218      2.04619      .   S
    Zr41   O264      2.23054      .   S
    Zr41   O219      2.04619      .   S
    Zr44   O267      2.23054      .   S
    Zr44   O222      2.04619      .   S
    Zr45   O268      2.23054  1_545   S
    Zr45   O223      2.04619      .   S
    Zr89   O237      2.23786      .   S
    Zr89   O132      2.07339      .   S
    Zr90   O238      2.23786      .   S
    Zr90   O133      2.07339      .   S
    Zr86   O234      2.23786      .   S
    Zr86   O129      2.07339      .   S
    Zr85   O233      2.23786      .   S
    Zr85   O128      2.07339      .   S
    O223   Zr103     2.03365      .   S
    O218   Zr98      2.03365      .   S
    O219   Zr99      2.03365      .   S
    O222   Zr102     2.03365      .   S
    H158   O143      0.99990      .   S
    H162   O147      0.99990      .   S
    H163   O148      0.99990      .   S
    H159   O144      0.99990      .   S
    O144   Zr71      2.22841      .   S
    O143   Zr70      2.22841      .   S
    O148   Zr75      2.22841      .   S
    O147   Zr74      2.22841      .   S
    O117   Zr59      2.07127      .   S
    O117   Zr74      2.06761      .   S
    O114   Zr56      2.07127      .   S
    O114   Zr71      2.06761      .   S
    O113   Zr55      2.07127  1_565   S
    O113   Zr70      2.06761      .   S
    O118   Zr60      2.07127  1_545   S
    O118   Zr75      2.06761      .   S
    Zr99   O205      2.03960      .   S
    Zr102  O208      2.03960      .   S
    Zr98   O204      2.03960      .   S
    Zr103  O209      2.03960      .   S
    Zr60   O133      2.07096      .   S
    Zr59   O132      2.07096      .   S
    Zr56   O129      2.07096      .   S
    Zr55   O128      2.07096      .   S
    O238   H253      1.00052      .   S
    O237   H252      1.00052      .   S
    O234   H249      1.00052      .   S
    O233   H248      1.00052      .   S
    O209   Zr30      2.05329  1_545   S
    O208   Zr29      2.05329      .   S
    O205   Zr26      2.05329      .   S
    O204   Zr25      2.05329  1_565   S
    Zr71   O174      2.23529      .   S
    Zr70   O173      2.23529  1_565   S
    Zr74   O177      2.23529      .   S
    Zr75   O178      2.23529  1_545   S
    O174   H189      0.99793      .   S
    O173   H188      0.99793      .   S
    O178   H193      0.99793      .   S
    O177   H192      0.99793      .   S
    H19    O18       1.00159      .   S
    H285   O270      1.00159      .   S
    H273   O258      1.00159      .   S
    H284   O269      1.00159      .   S
    Zr2    O18       2.23054      .   S
    Zr2    O15       2.04619  1_655   S
    Zr35   O258      2.23054      .   S
    Zr35   O214      2.04619  1_455   S
    Zr46   O269      2.23054      .   S
    Zr46   O224      2.04619      .   S
    Zr47   O270      2.23054      .   S
    Zr47   O225      2.04619      .   S
    Zr5    O16       2.23786      .   S
    Zr5    O8        2.07339  1_455   S
    Zr80   O228      2.23786      .   S
    Zr80   O123      2.07339  1_655   S
    Zr91   O239      2.23786      .   S
    Zr91   O134      2.07339      .   S
    Zr92   O240      2.23786      .   S
    Zr92   O135      2.07339      .   S
    O15    Zr6       2.03365      .   S
    O224   Zr104     2.03365      .   S
    O225   Zr105     2.03365      .   S
    O214   Zr93      2.03365      .   S
    H10    O9        0.99990      .   S
    H165   O150      0.99990      .   S
    H164   O149      0.99990      .   S
    H153   O138      0.99990      .   S
    O9     Zr4       2.22841  1_455   S
    O150   Zr77      2.22841      .   S
    O138   Zr65      2.22841  1_655   S
    O149   Zr76      2.22841      .   S
    O7     Zr3       2.07127      .   S
    O7     Zr4       2.06761      .   S
    O120   Zr62      2.07127      .   S
    O120   Zr77      2.06761      .   S
    O119   Zr61      2.07127      .   S
    O119   Zr76      2.06761      .   S
    O108   Zr50      2.07127      .   S
    O108   Zr65      2.06761      .   S
    Zr6    O14       2.03960      .   S
    Zr104  O210      2.03960      .   S
    Zr93   O199      2.03960      .   S
    Zr105  O211      2.03960      .   S
    Zr3    O8        2.07096      .   S
    Zr62   O135      2.07096      .   S
    Zr50   O123      2.07096      .   S
    Zr61   O134      2.07096      .   S
    O16    H17       1.00052      .   S
    O240   H255      1.00052      .   S
    O239   H254      1.00052      .   S
    O228   H243      1.00052      .   S
    O14    Zr11      2.05329      .   S
    O199   Zr22      2.05329      .   S
    O210   Zr31      2.05329      .   S
    O211   Zr32      2.05329      .   S
    Zr4    O12       2.23529      .   S
    Zr76   O179      2.23529      .   S
    Zr77   O180      2.23529      .   S
    Zr65   O168      2.23529      .   S
    O12    H13       0.99793      .   S
    O180   H195      0.99793      .   S
    O168   H183      0.99793      .   S
    O179   H194      0.99793      .   S
    H274   O259      1.00159      .   S
    H275   O260      1.00159      .   S
    H286   O271      1.00159      .   S
    H287   O272      1.00159      .   S
    Zr49   O272      2.23054  1_545   S
    Zr49   O227      2.04619      .   S
    Zr36   O259      2.23054  1_565   S
    Zr36   O198      2.04619      .   S
    Zr37   O260      2.23054      .   S
    Zr37   O215      2.04619      .   S
    Zr48   O271      2.23054      .   S
    Zr48   O226      2.04619      .   S
    Zr82   O230      2.23786      .   S
    Zr82   O125      2.07339      .   S
    Zr81   O229      2.23786      .   S
    Zr81   O124      2.07339      .   S
    Zr20   O241      2.23786      .   S
    Zr20   O136      2.07339      .   S
    Zr21   O242      2.23786      .   S
    Zr21   O137      2.07339      .   S
    O198   Zr94      2.03365      .   S
    O215   Zr95      2.03365      .   S
    O226   Zr106     2.03365      .   S
    O227   Zr107     2.03365      .   S
    H154   O139      0.99990      .   S
    H155   O140      0.99990      .   S
    H166   O151      0.99990      .   S
    H167   O152      0.99990      .   S
    O152   Zr79      2.22841      .   S
    O151   Zr78      2.22841      .   S
    O139   Zr66      2.22841      .   S
    O140   Zr67      2.22841      .   S
    O121   Zr63      2.07127      .   S
    O121   Zr78      2.06761      .   S
    O110   Zr52      2.07127      .   S
    O110   Zr67      2.06761      .   S
    O109   Zr51      2.07127  1_565   S
    O109   Zr66      2.06761      .   S
    O122   Zr64      2.07127  1_545   S
    O122   Zr79      2.06761      .   S
    Zr94   O200      2.03960      .   S
    Zr95   O201      2.03960      .   S
    Zr106  O212      2.03960      .   S
    Zr107  O213      2.03960      .   S
    Zr64   O137      2.07096      .   S
    Zr63   O136      2.07096      .   S
    Zr52   O125      2.07096      .   S
    Zr51   O124      2.07096      .   S
    O241   H256      1.00052      .   S
    O242   H257      1.00052      .   S
    O230   H245      1.00052      .   S
    O229   H244      1.00052      .   S
    O201   Zr1       2.05329      .   S
    O212   Zr33      2.05329      .   S
    O213   Zr34      2.05329  1_545   S
    O200   Zr23      2.05329  1_565   S
    Zr79   O182      2.23529  1_545   S
    Zr78   O181      2.23529      .   S
    Zr67   O170      2.23529      .   S
    Zr66   O169      2.23529  1_565   S
    O181   H196      0.99793      .   S
    O182   H197      0.99793      .   S
    O170   H185      0.99793      .   S
    O169   H184      0.99793      .   S
    O7     Zr2       2.07970      .   S
    O8     Zr11      2.07838  1_655   S
    O9     Zr2       2.24090  1_455   S
    O9     Zr6       2.31787      .   S
    O12    Zr11      2.24038  1_655   S
    O12    Zr3       2.24669      .   S
    O14    Zr4       2.07313  1_455   S
    O15    Zr5       2.07056      .   S
    O16    Zr11      2.25091      .   S
    O16    Zr6       2.33901      .   S
    O18    Zr3       2.24590      .   S
    O18    Zr5       2.24168  1_655   S
    O108   Zr35      2.07970      .   S
    O109   Zr36      2.07970      .   S
    O110   Zr37      2.07970      .   S
    O111   Zr38      2.07970      .   S
    O112   Zr39      2.07970      .   S
    O113   Zr40      2.07970      .   S
    O114   Zr41      2.07970      .   S
    O115   Zr42      2.07970      .   S
    O116   Zr43      2.07970      .   S
    O117   Zr44      2.07970      .   S
    O118   Zr45      2.07970      .   S
    O119   Zr46      2.07970      .   S
    O120   Zr47      2.07970      .   S
    O121   Zr48      2.07970      .   S
    O122   Zr49      2.07970      .   S
    O123   Zr22      2.07838  1_455   S
    O124   Zr23      2.07838      .   S
    O125   Zr1       2.07838      .   S
    O126   Zr0       2.07838      .   S
    O127   Zr24      2.07838      .   S
    O128   Zr25      2.07838      .   S
    O129   Zr26      2.07838      .   S
    O130   Zr27      2.07838  1_655   S
    O131   Zr28      2.07838  1_455   S
    O132   Zr29      2.07838      .   S
    O133   Zr30      2.07838      .   S
    O134   Zr31      2.07838      .   S
    O135   Zr32      2.07838      .   S
    O136   Zr33      2.07838      .   S
    O137   Zr34      2.07838      .   S
    O138   Zr35      2.24090  1_655   S
    O138   Zr93      2.31787      .   S
    O139   Zr36      2.24090      .   S
    O139   Zr94      2.31787      .   S
    O140   Zr37      2.24090      .   S
    O140   Zr95      2.31787      .   S
    O141   Zr38      2.24090      .   S
    O141   Zr96      2.31787      .   S
    O142   Zr39      2.24090      .   S
    O142   Zr97      2.31787      .   S
    O143   Zr40      2.24090      .   S
    O143   Zr98      2.31787      .   S
    O144   Zr41      2.24090      .   S
    O144   Zr99      2.31787      .   S
    O145   Zr42      2.24090  1_455   S
    O145   Zr100     2.31787      .   S
    O146   Zr43      2.24090  1_655   S
    O146   Zr101     2.31787      .   S
    O147   Zr44      2.24090      .   S
    O147   Zr102     2.31787      .   S
    O148   Zr45      2.24090      .   S
    O148   Zr103     2.31787      .   S
    O149   Zr46      2.24090      .   S
    O149   Zr104     2.31787      .   S
    O150   Zr47      2.24090      .   S
    O150   Zr105     2.31787      .   S
    O151   Zr48      2.24090      .   S
    O151   Zr106     2.31787      .   S
    O152   Zr49      2.24090      .   S
    O152   Zr107     2.31787      .   S
    O168   Zr22      2.24038  1_455   S
    O168   Zr50      2.24669      .   S
    O169   Zr23      2.24038      .   S
    O169   Zr51      2.24669      .   S
    O170   Zr1       2.24038      .   S
    O170   Zr52      2.24669      .   S
    O171   Zr0       2.24038      .   S
    O171   Zr53      2.24669      .   S
    O172   Zr24      2.24038      .   S
    O172   Zr54      2.24669      .   S
    O173   Zr25      2.24038      .   S
    O173   Zr55      2.24669      .   S
    O174   Zr26      2.24038      .   S
    O174   Zr56      2.24669      .   S
    O175   Zr27      2.24038  1_655   S
    O175   Zr57      2.24669      .   S
    O176   Zr28      2.24038  1_455   S
    O176   Zr58      2.24669      .   S
    O177   Zr29      2.24038      .   S
    O177   Zr59      2.24669      .   S
    O178   Zr30      2.24038      .   S
    O178   Zr60      2.24669      .   S
    O179   Zr31      2.24038      .   S
    O179   Zr61      2.24669      .   S
    O180   Zr32      2.24038      .   S
    O180   Zr62      2.24669      .   S
    O181   Zr33      2.24038      .   S
    O181   Zr63      2.24669      .   S
    O182   Zr34      2.24038      .   S
    O182   Zr64      2.24669      .   S
    O199   Zr65      2.07313  1_655   S
    O200   Zr66      2.07313      .   S
    O201   Zr67      2.07313      .   S
    O202   Zr68      2.07313      .   S
    O203   Zr69      2.07313      .   S
    O204   Zr70      2.07313      .   S
    O205   Zr71      2.07313      .   S
    O206   Zr72      2.07313  1_455   S
    O207   Zr73      2.07313  1_655   S
    O208   Zr74      2.07313      .   S
    O209   Zr75      2.07313      .   S
    O210   Zr76      2.07313      .   S
    O211   Zr77      2.07313      .   S
    O212   Zr78      2.07313      .   S
    O213   Zr79      2.07313      .   S
    O214   Zr80      2.07056      .   S
    O198   Zr81      2.07056  1_565   S
    O215   Zr82      2.07056      .   S
    O216   Zr83      2.07056      .   S
    O217   Zr84      2.07056      .   S
    O218   Zr85      2.07056  1_565   S
    O219   Zr86      2.07056      .   S
    O220   Zr87      2.07056      .   S
    O221   Zr88      2.07056      .   S
    O222   Zr89      2.07056      .   S
    O223   Zr90      2.07056  1_545   S
    O224   Zr91      2.07056      .   S
    O225   Zr92      2.07056      .   S
    O226   Zr20      2.07056      .   S
    O227   Zr21      2.07056  1_545   S
    O228   Zr22      2.25091      .   S
    O228   Zr93      2.33901      .   S
    O229   Zr23      2.25091      .   S
    O229   Zr94      2.33901  1_545   S
    O230   Zr1       2.25091      .   S
    O230   Zr95      2.33901      .   S
    O231   Zr0       2.25091      .   S
    O231   Zr96      2.33901      .   S
    O232   Zr24      2.25091      .   S
    O232   Zr97      2.33901      .   S
    O233   Zr25      2.25091      .   S
    O233   Zr98      2.33901  1_545   S
    O234   Zr26      2.25091      .   S
    O234   Zr99      2.33901      .   S
    O235   Zr27      2.25091      .   S
    O235   Zr100     2.33901      .   S
    O236   Zr28      2.25091      .   S
    O236   Zr101     2.33901      .   S
    O237   Zr29      2.25091      .   S
    O237   Zr102     2.33901      .   S
    O238   Zr30      2.25091      .   S
    O238   Zr103     2.33901  1_565   S
    O239   Zr31      2.25091      .   S
    O239   Zr104     2.33901      .   S
    O240   Zr32      2.25091      .   S
    O240   Zr105     2.33901      .   S
    O241   Zr33      2.25091      .   S
    O241   Zr106     2.33901      .   S
    O242   Zr34      2.25091      .   S
    O242   Zr107     2.33901  1_565   S
    O258   Zr50      2.24590      .   S
    O258   Zr80      2.24168  1_455   S
    O259   Zr51      2.24590      .   S
    O259   Zr81      2.24168      .   S
    O260   Zr52      2.24590      .   S
    O260   Zr82      2.24168      .   S
    O261   Zr53      2.24590      .   S
    O261   Zr83      2.24168      .   S
    O262   Zr54      2.24590      .   S
    O262   Zr84      2.24168      .   S
    O263   Zr55      2.24590      .   S
    O263   Zr85      2.24168      .   S
    O264   Zr56      2.24590      .   S
    O264   Zr86      2.24168      .   S
    O265   Zr57      2.24590      .   S
    O265   Zr87      2.24168  1_655   S
    O266   Zr58      2.24590      .   S
    O266   Zr88      2.24168  1_455   S
    O267   Zr59      2.24590      .   S
    O267   Zr89      2.24168      .   S
    O268   Zr60      2.24590      .   S
    O268   Zr90      2.24168      .   S
    O269   Zr61      2.24590      .   S
    O269   Zr91      2.24168      .   S
    O270   Zr62      2.24590      .   S
    O270   Zr92      2.24168      .   S
    O271   Zr63      2.24590      .   S
    O271   Zr20      2.24168      .   S
    O272   Zr64      2.24590      .   S
    O272   Zr21      2.24168      .   S
