# CIF file generated by openbabel 2.4.90, see http://openbabel.sf.net
data_I
_chemical_name_common ''
_cell_length_a 39.222
_cell_length_b 26.018
_cell_length_c 27.887
_cell_angle_alpha 90
_cell_angle_beta 90
_cell_angle_gamma 90
_space_group_name_H-M_alt 'P 1'
_space_group_name_Hall 'P 1'
loop_
    _symmetry_equiv_pos_as_xyz
    x,y,z
loop_
    _atom_site_label
    _atom_site_type_symbol
    _atom_site_fract_x
    _atom_site_fract_y
    _atom_site_fract_z
    _atom_site_occupancy
    N0      N    0.10659   0.39707   0.48941   1.000
    N1      N    0.00090   0.22099   0.37957   1.000
    N2      N    0.10814   0.40797   0.75343   1.000
    N3      N    0.89379   0.08632   0.76298   1.000
    N4      N    0.89189   0.07479   0.51406   1.000
    N5      N    0.35659   0.85293   0.73941   1.000
    N6      N    0.14341   0.64707   0.73941   1.000
    N7      N    0.60659   0.39708   0.98941   1.000
    N8      N    0.39341   0.60292   0.98941   1.000
    N9      N    0.85659   0.85293   0.23941   1.000
    N10     N    0.64341   0.64708   0.23941   1.000
    N11     N    0.10659   0.89707   0.98941   1.000
    N12     N    0.89186   0.59203   0.75343   1.000
    N13     N    0.35814   0.84203   0.00343   1.000
    N14     N    0.14186   0.65797   0.00343   1.000
    N15     N    0.60814   0.40797   0.25343   1.000
    N16     N    0.39186   0.59203   0.25343   1.000
    N17     N    0.85814   0.84203   0.50343   1.000
    N18     N    0.64186   0.65797   0.50343   1.000
    N19     N    0.10814   0.90797   0.25343   1.000
    N20     N    0.89186   0.09203   0.25343   1.000
    N21     N    0.35814   0.34203   0.50343   1.000
    N22     N    0.10621   0.91368   0.76298   1.000
    N23     N    0.14379   0.16368   0.01298   1.000
    N24     N    0.35621   0.33632   0.01298   1.000
    N25     N    0.39379   0.08633   0.26298   1.000
    N26     N    0.60621   0.91368   0.26298   1.000
    N27     N    0.64379   0.16368   0.51298   1.000
    N28     N    0.85621   0.33632   0.51298   1.000
    N29     N    0.89379   0.58633   0.26298   1.000
    N30     N    0.10621   0.41367   0.26298   1.000
    N31     N    0.14379   0.66368   0.51298   1.000
    N32     N    0.35621   0.83633   0.51298   1.000
    N33     N    0.39379   0.58633   0.76298   1.000
    N34     N    0.60621   0.41368   0.76298   1.000
    N35     N    0.64379   0.66368   0.01298   1.000
    N36     N    0.85621   0.83633   0.01298   1.000
    N37     N    0.10811   0.92521   0.51406   1.000
    N38     N    0.14189   0.17521   0.76406   1.000
    N39     N    0.35811   0.32479   0.76406   1.000
    N40     N    0.39189   0.07479   0.01406   1.000
    N41     N    0.60811   0.92521   0.01406   1.000
    N42     N    0.64189   0.17521   0.26406   1.000
    N43     N    0.14186   0.15797   0.50343   1.000
    N44     N    0.60814   0.90797   0.75343   1.000
    N45     N    0.39186   0.09203   0.75343   1.000
    N46     N    0.85814   0.34203   0.00343   1.000
    N47     N    0.64186   0.15797   0.00343   1.000
    N48     N    0.85811   0.32479   0.26406   1.000
    N49     N    0.89189   0.57479   0.01406   1.000
    N50     N    0.10811   0.42521   0.01406   1.000
    N51     N    0.14189   0.67521   0.26406   1.000
    N52     N    0.35811   0.82479   0.26406   1.000
    N53     N    0.39189   0.57479   0.51406   1.000
    N54     N    0.60811   0.42521   0.51406   1.000
    N55     N    0.64189   0.67521   0.76406   1.000
    N56     N    0.85811   0.82479   0.76406   1.000
    N57     N    0.89341   0.60292   0.48941   1.000
    N58     N    0.89341   0.10293   0.98941   1.000
    N59     N    0.35659   0.35292   0.23941   1.000
    N60     N    0.14341   0.14707   0.23941   1.000
    N61     N    0.60659   0.89708   0.48941   1.000
    N62     N    0.39341   0.10293   0.48941   1.000
    N63     N    0.85659   0.35293   0.73941   1.000
    N64     N    0.64341   0.14707   0.73941   1.000
    N65     N    0.99910   0.77901   0.37957   1.000
    N66     N    0.25090   0.02901   0.62957   1.000
    N67     N    0.24910   0.47099   0.62957   1.000
    N68     N    0.50090   0.22099   0.87957   1.000
    N69     N    0.49910   0.77901   0.87957   1.000
    N70     N    0.75090   0.02901   0.12957   1.000
    N71     N    0.74910   0.47099   0.12957   1.000
    N72     N    0.00090   0.72099   0.87957   1.000
    N73     N    0.99910   0.27901   0.87957   1.000
    N74     N    0.25090   0.52901   0.12957   1.000
    N75     N    0.24910   0.97099   0.12957   1.000
    N76     N    0.50090   0.72099   0.37957   1.000
    N77     N    0.49910   0.27901   0.37957   1.000
    N78     N    0.75090   0.52901   0.62957   1.000
    N79     N    0.74910   0.97099   0.62957   1.000
    Zr80    Zr   0.99933   0.24567   0.62985   1.000
    Zr81    Zr   0.74932   0.00433   0.37985   1.000
    Zr82    Zr   0.75068   0.49567   0.37985   1.000
    Zr83    Zr   0.99933   0.74567   0.12985   1.000
    Zr84    Zr   0.00067   0.25433   0.12985   1.000
    Zr85    Zr   0.24932   0.50433   0.37985   1.000
    Zr86    Zr   0.25067   0.99567   0.37985   1.000
    Zr87    Zr   0.49932   0.74567   0.62985   1.000
    Zr88    Zr   0.50067   0.25433   0.62985   1.000
    Zr89    Zr   0.25067   0.49567   0.87985   1.000
    Zr90    Zr   0.49932   0.24567   0.12985   1.000
    Zr91    Zr   0.50067   0.75433   0.12985   1.000
    Zr92    Zr   0.74932   0.50433   0.87985   1.000
    Zr93    Zr   0.75067   0.99567   0.87985   1.000
    Zr94    Zr   0.00067   0.75433   0.62985   1.000
    Zr95    Zr   0.24933   0.00433   0.87985   1.000
    O96     O    0.80126   0.02409   0.83749   1.000
    O97     O    0.96337   0.18924   0.67771   1.000
    O98     O    0.94887   0.78182   0.16852   1.000
    O99     O    0.78600   0.95047   0.32972   1.000
    O100    O    0.95011   0.78459   0.58633   1.000
    O101    O    0.78652   0.94415   0.42134   1.000
    O102    O    0.45011   0.28459   0.58633   1.000
    O103    O    0.28652   0.44415   0.42134   1.000
    O104    O    0.46337   0.18924   0.17771   1.000
    O105    O    0.30126   0.02409   0.33749   1.000
    O106    O    0.71348   0.05585   0.92134   1.000
    O107    O    0.80113   0.03182   0.91852   1.000
    O108    O    0.70013   0.97320   0.92716   1.000
    O109    O    0.78725   0.93285   0.84093   1.000
    O110    O    0.71400   0.04953   0.82972   1.000
    O111    O    0.75067   0.00807   0.96741   1.000
    O112    O    0.75009   0.98566   0.79201   1.000
    O113    O    0.70011   0.96541   0.83633   1.000
    O114    O    0.78663   0.93924   0.92771   1.000
    O115    O    0.53663   0.81076   0.17771   1.000
    O116    O    0.69874   0.97591   0.33749   1.000
    O117    O    0.55126   0.22591   0.58749   1.000
    O118    O    0.71337   0.06076   0.42771   1.000
    O119    O    0.71337   0.56076   0.92771   1.000
    O120    O    0.55126   0.72591   0.08749   1.000
    O121    O    0.53663   0.31076   0.67771   1.000
    O122    O    0.69874   0.47591   0.83749   1.000
    O123    O    0.46337   0.68924   0.67771   1.000
    O124    O    0.30126   0.52409   0.83749   1.000
    O125    O    0.54987   0.22320   0.17716   1.000
    O126    O    0.71275   0.06715   0.34093   1.000
    O127    O    0.50009   0.26434   0.54201   1.000
    O128    O    0.45013   0.27680   0.67716   1.000
    O129    O    0.53725   0.31715   0.59093   1.000
    O130    O    0.55113   0.21818   0.66852   1.000
    O131    O    0.46400   0.20047   0.57972   1.000
    O132    O    0.46348   0.19415   0.67134   1.000
    O133    O    0.50067   0.24193   0.71741   1.000
    O134    O    0.54989   0.21541   0.08633   1.000
    O135    O    0.21275   0.56715   0.34093   1.000
    O136    O    0.24933   0.49193   0.46741   1.000
    O137    O    0.29987   0.52680   0.42716   1.000
    O138    O    0.29989   0.53459   0.33633   1.000
    O139    O    0.19874   0.47591   0.33749   1.000
    O140    O    0.21337   0.56076   0.42771   1.000
    O141    O    0.28600   0.45047   0.32972   1.000
    O142    O    0.24991   0.51434   0.29201   1.000
    O143    O    0.19887   0.46818   0.41852   1.000
    O144    O    0.96400   0.70047   0.57972   1.000
    O145    O    0.05113   0.71818   0.66852   1.000
    O146    O    0.00067   0.74193   0.71741   1.000
    O147    O    0.95013   0.77680   0.67716   1.000
    O148    O    0.00009   0.76434   0.54201   1.000
    O149    O    0.03725   0.81715   0.59093   1.000
    O150    O    0.05126   0.72591   0.58749   1.000
    O151    O    0.03663   0.81076   0.67771   1.000
    O152    O    0.96348   0.69415   0.67134   1.000
    O153    O    0.28652   0.94415   0.92134   1.000
    O154    O    0.21337   0.06076   0.92771   1.000
    O155    O    0.21275   0.06715   0.84093   1.000
    O156    O    0.29987   0.02680   0.92716   1.000
    O157    O    0.24991   0.01434   0.79201   1.000
    O158    O    0.19887   0.96818   0.91852   1.000
    O159    O    0.19874   0.97591   0.83749   1.000
    O160    O    0.29989   0.03459   0.83633   1.000
    O161    O    0.24933   0.99193   0.96741   1.000
    O162    O    0.28600   0.95047   0.82972   1.000
    O163    O    0.69887   0.46818   0.91852   1.000
    O164    O    0.71275   0.56715   0.84093   1.000
    O165    O    0.79987   0.52680   0.92716   1.000
    O166    O    0.74991   0.51434   0.79201   1.000
    O167    O    0.79989   0.53459   0.83633   1.000
    O168    O    0.78600   0.45047   0.82972   1.000
    O169    O    0.74933   0.49193   0.96741   1.000
    O170    O    0.78652   0.44415   0.92134   1.000
    O171    O    0.04987   0.72320   0.17716   1.000
    O172    O    0.80113   0.53182   0.41852   1.000
    O173    O    0.96400   0.20047   0.07972   1.000
    O174    O    0.25009   0.48566   0.79201   1.000
    O175    O    0.49933   0.25807   0.21741   1.000
    O176    O    0.44874   0.27409   0.08749   1.000
    O177    O    0.28663   0.43924   0.92771   1.000
    O178    O    0.45011   0.78459   0.08633   1.000
    O179    O    0.21348   0.55585   0.92134   1.000
    O180    O    0.04989   0.71541   0.08633   1.000
    O181    O    0.05126   0.22591   0.08749   1.000
    O182    O    0.21400   0.54953   0.82972   1.000
    O183    O    0.53600   0.29953   0.07972   1.000
    O184    O    0.28725   0.43285   0.84093   1.000
    O185    O    0.04987   0.22320   0.67716   1.000
    O186    O    0.99991   0.73566   0.04201   1.000
    O187    O    0.99933   0.25807   0.71741   1.000
    O188    O    0.00009   0.26434   0.04201   1.000
    O189    O    0.04989   0.21541   0.58633   1.000
    O190    O    0.96275   0.18285   0.59093   1.000
    O191    O    0.94887   0.28182   0.66852   1.000
    O192    O    0.03652   0.30585   0.67134   1.000
    O193    O    0.94874   0.27409   0.58749   1.000
    O194    O    0.03600   0.29953   0.57972   1.000
    O195    O    0.99991   0.23566   0.54201   1.000
    O196    O    0.70013   0.47320   0.42716   1.000
    O197    O    0.71400   0.54953   0.32972   1.000
    O198    O    0.78725   0.43285   0.34093   1.000
    O199    O    0.75067   0.50807   0.46741   1.000
    O200    O    0.71348   0.55585   0.42134   1.000
    O201    O    0.78663   0.43924   0.42771   1.000
    O202    O    0.75009   0.48566   0.29201   1.000
    O203    O    0.70011   0.46541   0.33633   1.000
    O204    O    0.80126   0.52409   0.33749   1.000
    O205    O    0.46275   0.18285   0.09093   1.000
    O206    O    0.44887   0.28182   0.16852   1.000
    O207    O    0.49991   0.23566   0.04201   1.000
    O208    O    0.53652   0.30585   0.17134   1.000
    O209    O    0.53725   0.81715   0.09093   1.000
    O210    O    0.03725   0.31715   0.09093   1.000
    O211    O    0.20013   0.47320   0.92716   1.000
    O212    O    0.28725   0.93285   0.34093   1.000
    O213    O    0.45013   0.77680   0.17716   1.000
    O214    O    0.46275   0.68285   0.59093   1.000
    O215    O    0.54987   0.72320   0.67716   1.000
    O216    O    0.30113   0.53182   0.91852   1.000
    O217    O    0.46400   0.70047   0.07972   1.000
    O218    O    0.55113   0.71818   0.16852   1.000
    O219    O    0.99933   0.75807   0.21741   1.000
    O220    O    0.74991   0.01434   0.29201   1.000
    O221    O    0.46348   0.69415   0.17134   1.000
    O222    O    0.96275   0.68285   0.09093   1.000
    O223    O    0.95013   0.27680   0.17716   1.000
    O224    O    0.74933   0.99193   0.46741   1.000
    O225    O    0.20013   0.97320   0.42716   1.000
    O226    O    0.25067   0.00807   0.46741   1.000
    O227    O    0.53600   0.79953   0.57972   1.000
    O228    O    0.69887   0.96818   0.41852   1.000
    O229    O    0.30113   0.03182   0.41852   1.000
    O230    O    0.03600   0.79953   0.07972   1.000
    O231    O    0.49991   0.73566   0.54201   1.000
    O232    O    0.50067   0.74193   0.21741   1.000
    O233    O    0.03663   0.31076   0.17771   1.000
    O234    O    0.54989   0.71541   0.58633   1.000
    O235    O    0.28663   0.93924   0.42771   1.000
    O236    O    0.44874   0.77409   0.58749   1.000
    O237    O    0.21348   0.05585   0.42134   1.000
    O238    O    0.79987   0.02680   0.42716   1.000
    O239    O    0.20011   0.96541   0.33633   1.000
    O240    O    0.25009   0.98566   0.29201   1.000
    O241    O    0.21400   0.04953   0.32972   1.000
    O242    O    0.20011   0.46541   0.83633   1.000
    O243    O    0.49933   0.75807   0.71741   1.000
    O244    O    0.50009   0.76434   0.04201   1.000
    O245    O    0.95011   0.28459   0.08633   1.000
    O246    O    0.05113   0.21818   0.16852   1.000
    O247    O    0.96348   0.19415   0.17134   1.000
    O248    O    0.00067   0.24193   0.21741   1.000
    O249    O    0.53652   0.80585   0.67134   1.000
    O250    O    0.44887   0.78182   0.66852   1.000
    O251    O    0.03652   0.80585   0.17134   1.000
    O252    O    0.25067   0.50807   0.96741   1.000
    O253    O    0.94874   0.77409   0.08749   1.000
    O254    O    0.96337   0.68924   0.17771   1.000
    O255    O    0.79989   0.03459   0.33633   1.000
loop_
    _geom_bond_atom_site_label_1
    _geom_bond_atom_site_label_2
    _geom_bond_distance
    _geom_bond_site_symmetry_2
    _ccdc_geom_bond_type
    N3     O96       4.48471      .   S
    Zr93   O96       2.42443  1_565   S
    N3     O97       4.50242      .   S
    Zr80   O97       2.43428      .   S
    N9     O98       4.51996      .   S
    Zr83   O98       2.44217      .   S
    N9     O99       4.52208      .   S
    Zr81   O99       2.44690  1_545   S
    N17    O100      4.53772      .   S
    Zr94   O100      2.45481  1_455   S
    N17    O101      4.49335      .   S
    Zr81   O101      2.43282  1_545   S
    N21    O102      4.53772      .   S
    Zr88   O102      2.45481      .   S
    N21    O103      4.49335      .   S
    Zr85   O103      2.43282      .   S
    N25    O104      4.50242      .   S
    Zr90   O104      2.43428      .   S
    N25    O105      4.48471      .   S
    Zr86   O105      2.42443  1_565   S
    Zr93   O106      2.43282  1_565   S
    N47    O106      4.49335  1_554   S
    Zr93   O107      2.44217  1_565   S
    N58    O107      4.51996      .   S
    Zr93   O108      2.45192      .   S
    N41    O108      4.52310  1_554   S
    Zr93   O109      2.43046      .   S
    N56    O109      4.49725      .   S
    Zr93   O110      2.44690  1_565   S
    N64    O110      4.52208      .   S
    Zr93   O111      2.46302  1_565   S
    N70    O111      4.55480  1_554   S
    Zr93   O112      2.46352      .   S
    N79    O112      4.54621      .   S
    Zr93   O113      2.45481      .   S
    N44    O113      4.53772      .   S
    Zr93   O114      2.43428      .   S
    N36    O114      4.50242  1_554   S
    N26    O115      4.50242      .   S
    Zr91   O115      2.43428      .   S
    N26    O116      4.48471      .   S
    Zr81   O116      2.42443  1_545   S
    N27    O117      4.48471      .   S
    Zr88   O117      2.42443      .   S
    N27    O118      4.50242      .   S
    Zr81   O118      2.43428      .   S
    N35    O119      4.50242  1_554   S
    Zr92   O119      2.43428      .   S
    N35    O120      4.48471      .   S
    Zr91   O120      2.42443      .   S
    N34    O121      4.50242      .   S
    Zr88   O121      2.43428      .   S
    N34    O122      4.48471      .   S
    Zr92   O122      2.42443      .   S
    N33    O123      4.50242      .   S
    Zr87   O123      2.43428      .   S
    N33    O124      4.48471      .   S
    Zr89   O124      2.42443      .   S
    N42    O125      4.52310      .   S
    Zr90   O125      2.45192      .   S
    N42    O126      4.49725      .   S
    Zr81   O126      2.43046      .   S
    Zr88   O127      2.46352      .   S
    N77    O127      4.54621      .   S
    Zr88   O128      2.45192      .   S
    N39    O128      4.52310      .   S
    Zr88   O129      2.43046      .   S
    N54    O129      4.49725      .   S
    Zr88   O130      2.44217      .   S
    N64    O130      4.51996      .   S
    Zr88   O131      2.44690      .   S
    N62    O131      4.52208      .   S
    Zr88   O132      2.43282      .   S
    N45    O132      4.49335      .   S
    Zr88   O133      2.46302      .   S
    N68    O133      4.55480      .   S
    N47    O134      4.53772      .   S
    Zr90   O134      2.45481      .   S
    Zr85   O135      2.43046      .   S
    N51    O135      4.49725      .   S
    Zr85   O136      2.46302      .   S
    N67    O136      4.55480      .   S
    Zr85   O137      2.45192      .   S
    N53    O137      4.52310      .   S
    Zr85   O138      2.45481      .   S
    N16    O138      4.53772      .   S
    Zr85   O139      2.42443      .   S
    N30    O139      4.48471      .   S
    Zr85   O140      2.43428      .   S
    N31    O140      4.50242      .   S
    Zr85   O141      2.44690      .   S
    N59    O141      4.52208      .   S
    Zr85   O142      2.46352      .   S
    N74    O142      4.54621      .   S
    Zr85   O143      2.44217      .   S
    N0     O143      4.51996      .   S
    Zr94   O144      2.44690  1_455   S
    N57    O144      4.52208      .   S
    Zr94   O145      2.44217      .   S
    N6     O145      4.51996      .   S
    Zr94   O146      2.46302      .   S
    N72    O146      4.55480      .   S
    Zr94   O147      2.45192  1_455   S
    N56    O147      4.52310      .   S
    Zr94   O148      2.46352      .   S
    N65    O148      4.54621  1_655   S
    Zr94   O149      2.43046      .   S
    N37    O149      4.49725      .   S
    Zr94   O150      2.42443      .   S
    N31    O150      4.48471      .   S
    Zr94   O151      2.43428      .   S
    N22    O151      4.50242      .   S
    Zr94   O152      2.43282  1_455   S
    N12    O152      4.49335      .   S
    Zr95   O153      2.43282  1_545   S
    N13    O153      4.49335  1_554   S
    Zr95   O154      2.43428      .   S
    N23    O154      4.50242  1_554   S
    Zr95   O155      2.43046      .   S
    N38    O155      4.49725      .   S
    Zr95   O156      2.45192      .   S
    N40    O156      4.52310  1_554   S
    Zr95   O157      2.46352      .   S
    N66    O157      4.54621      .   S
    Zr95   O158      2.44217  1_545   S
    N11    O158      4.51996      .   S
    Zr95   O159      2.42443  1_545   S
    N22    O159      4.48471      .   S
    Zr95   O160      2.45481      .   S
    N45    O160      4.53772      .   S
    Zr95   O161      2.46302  1_545   S
    N75    O161      4.55480  1_554   S
    Zr95   O162      2.44690  1_545   S
    N5     O162      4.52208      .   S
    Zr92   O163      2.44217      .   S
    N7     O163      4.51996      .   S
    Zr92   O164      2.43046      .   S
    N55    O164      4.49725      .   S
    Zr92   O165      2.45192      .   S
    N49    O165      4.52310  1_554   S
    Zr92   O166      2.46352      .   S
    N78    O166      4.54621      .   S
    Zr92   O167      2.45481      .   S
    N12    O167      4.53772      .   S
    Zr92   O168      2.44690      .   S
    N63    O168      4.52208      .   S
    Zr92   O169      2.46302      .   S
    N71    O169      4.55480  1_554   S
    Zr92   O170      2.43282      .   S
    N46    O170      4.49335  1_554   S
    N51    O171      4.52310      .   S
    Zr83   O171      2.45192  1_655   S
    N57    O172      4.51996      .   S
    Zr82   O172      2.44217      .   S
    N58    O173      4.52208  1_556   S
    Zr84   O173      2.44690  1_455   S
    N67    O174      4.54621      .   S
    Zr89   O174      2.46352      .   S
    N77    O175      4.55480      .   S
    Zr90   O175      2.46302      .   S
    N24    O176      4.48471      .   S
    Zr90   O176      2.42443      .   S
    N24    O177      4.50242  1_554   S
    Zr89   O177      2.43428      .   S
    N13    O178      4.53772      .   S
    Zr91   O178      2.45481      .   S
    N14    O179      4.49335  1_554   S
    Zr89   O179      2.43282      .   S
    N14    O180      4.53772      .   S
    Zr83   O180      2.45481  1_655   S
    N23    O181      4.48471      .   S
    Zr84   O181      2.42443      .   S
    N6     O182      4.52208      .   S
    Zr89   O182      2.44690      .   S
    N7     O183      4.52208  1_556   S
    Zr90   O183      2.44690      .   S
    N39    O184      4.49725      .   S
    Zr89   O184      2.43046      .   S
    N38    O185      4.52310      .   S
    Zr80   O185      2.45192  1_655   S
    N72    O186      4.54621  1_456   S
    Zr83   O186      2.46352      .   S
    N73    O187      4.55480      .   S
    Zr80   O187      2.46302      .   S
    N73    O188      4.54621  1_656   S
    Zr84   O188      2.46352      .   S
    Zr80   O189      2.45481  1_655   S
    N43    O189      4.53772      .   S
    Zr80   O190      2.43046      .   S
    N4     O190      4.49725      .   S
    Zr80   O191      2.44217      .   S
    N63    O191      4.51996      .   S
    Zr80   O192      2.43282  1_655   S
    N2     O192      4.49335      .   S
    Zr80   O193      2.42443      .   S
    N28    O193      4.48471      .   S
    Zr80   O194      2.44690  1_655   S
    N0     O194      4.52208      .   S
    Zr80   O195      2.46352      .   S
    N1     O195      4.54621  1_455   S
    Zr82   O196      2.45192      .   S
    N54    O196      4.52310      .   S
    Zr82   O197      2.44690      .   S
    N10    O197      4.52208      .   S
    Zr82   O198      2.43046      .   S
    N48    O198      4.49725      .   S
    Zr82   O199      2.46302      .   S
    N78    O199      4.55480      .   S
    Zr82   O200      2.43282      .   S
    N18    O200      4.49335      .   S
    Zr82   O201      2.43428      .   S
    N28    O201      4.50242      .   S
    Zr82   O202      2.46352      .   S
    N71    O202      4.54621      .   S
    Zr82   O203      2.45481      .   S
    N15    O203      4.53772      .   S
    Zr82   O204      2.42443      .   S
    N29    O204      4.48471      .   S
    Zr90   O205      2.43046      .   S
    N40    O205      4.49725      .   S
    Zr90   O206      2.44217      .   S
    N59    O206      4.51996      .   S
    Zr90   O207      2.46352      .   S
    N68    O207      4.54621  1_556   S
    Zr90   O208      2.43282      .   S
    N15    O208      4.49335      .   S
    N41    O209      4.49725      .   S
    Zr91   O209      2.43046      .   S
    N50    O210      4.49725      .   S
    Zr84   O210      2.43046      .   S
    N50    O211      4.52310  1_554   S
    Zr89   O211      2.45192      .   S
    N52    O212      4.49725      .   S
    Zr86   O212      2.43046      .   S
    N52    O213      4.52310      .   S
    Zr91   O213      2.45192      .   S
    N53    O214      4.49725      .   S
    Zr87   O214      2.43046      .   S
    N55    O215      4.52310      .   S
    Zr87   O215      2.45192      .   S
    N8     O216      4.51996      .   S
    Zr89   O216      2.44217      .   S
    N8     O217      4.52208  1_556   S
    Zr91   O217      2.44690      .   S
    N10    O218      4.51996      .   S
    Zr91   O218      2.44217      .   S
    N65    O219      4.55480      .   S
    Zr83   O219      2.46302      .   S
    N70    O220      4.54621      .   S
    Zr81   O220      2.46352      .   S
    N16    O221      4.49335      .   S
    Zr91   O221      2.43282      .   S
    N49    O222      4.49725      .   S
    Zr83   O222      2.43046      .   S
    N48    O223      4.52310      .   S
    Zr84   O223      2.45192  1_455   S
    N79    O224      4.55480      .   S
    Zr81   O224      2.46302  1_545   S
    N37    O225      4.52310      .   S
    Zr86   O225      2.45192      .   S
    N66    O226      4.55480      .   S
    Zr86   O226      2.46302  1_565   S
    N61    O227      4.52208      .   S
    Zr87   O227      2.44690      .   S
    N61    O228      4.51996      .   S
    Zr81   O228      2.44217  1_545   S
    N62    O229      4.51996      .   S
    Zr86   O229      2.44217  1_565   S
    N11    O230      4.52208  1_556   S
    Zr83   O230      2.44690  1_655   S
    N76    O231      4.54621      .   S
    Zr87   O231      2.46352      .   S
    N76    O232      4.55480      .   S
    Zr91   O232      2.46302      .   S
    N30    O233      4.50242      .   S
    Zr84   O233      2.43428      .   S
    N18    O234      4.53772      .   S
    Zr87   O234      2.45481      .   S
    N32    O235      4.50242      .   S
    Zr86   O235      2.43428      .   S
    N32    O236      4.48471      .   S
    Zr87   O236      2.42443      .   S
    N43    O237      4.49335      .   S
    Zr86   O237      2.43282  1_565   S
    N4     O238      4.52310      .   S
    Zr81   O238      2.45192      .   S
    Zr86   O239      2.45481      .   S
    N19    O239      4.53772      .   S
    Zr86   O240      2.46352      .   S
    N75    O240      4.54621      .   S
    Zr86   O241      2.44690  1_565   S
    N60    O241      4.52208      .   S
    N2     O242      4.53772      .   S
    Zr89   O242      2.45481      .   S
    N69    O243      4.55480      .   S
    Zr87   O243      2.46302      .   S
    N69    O244      4.54621  1_556   S
    Zr91   O244      2.46352      .   S
    Zr84   O245      2.45481  1_455   S
    N46    O245      4.53772      .   S
    Zr84   O246      2.44217      .   S
    N60    O246      4.51996      .   S
    Zr84   O247      2.43282  1_455   S
    N20    O247      4.49335      .   S
    Zr84   O248      2.46302      .   S
    N1     O248      4.55480      .   S
    Zr87   O249      2.43282      .   S
    N44    O249      4.49335      .   S
    Zr87   O250      2.44217      .   S
    N5     O250      4.51996      .   S
    N19    O251      4.49335      .   S
    Zr83   O251      2.43282  1_655   S
    Zr89   O252      2.46302      .   S
    N74    O252      4.55480  1_554   S
    N36    O253      4.48471      .   S
    Zr83   O253      2.42443      .   S
    N29    O254      4.50242      .   S
    Zr83   O254      2.43428      .   S
    N20    O255      4.53772      .   S
    Zr81   O255      2.45481      .   S
