# CIF file generated by openbabel 2.4.90, see http://openbabel.sf.net
data_I
_chemical_name_common ''
_cell_length_a 39.222
_cell_length_b 26.018
_cell_length_c 27.887
_cell_angle_alpha 90
_cell_angle_beta 90
_cell_angle_gamma 90
_space_group_name_H-M_alt 'P 1'
_space_group_name_Hall 'P 1'
loop_
    _symmetry_equiv_pos_as_xyz
    x,y,z
loop_
    _atom_site_label
    _atom_site_type_symbol
    _atom_site_fract_x
    _atom_site_fract_y
    _atom_site_fract_z
    _atom_site_occupancy
    Zr0     Zr   0.01253   0.19131   0.70101   1.000
    Zr1     Zr   0.98690   0.30022   0.55889   1.000
    Zr2     Zr   0.93974   0.21879   0.63324   1.000
    Zr3     Zr   0.98664   0.31888   0.68418   1.000
    Zr4     Zr   0.01232   0.17290   0.57488   1.000
    Zr5     Zr   0.05965   0.27276   0.62667   1.000
    Zr6     Zr   0.96218   0.29020   0.62420   1.000
    Zr7     Zr   0.98509   0.17840   0.63840   1.000
    Zr8     Zr   0.01749   0.33460   0.61870   1.000
    Zr9     Zr   0.02540   0.37080   0.61410   1.000
    Zr10    Zr   0.96593   0.24110   0.70180   1.000
    Zr11    Zr   0.95170   0.23900   0.73140   1.000
    Zr12    Zr   0.02540   0.26480   0.68120   1.000
    Zr13    Zr   0.02508   0.25010   0.57660   1.000
    Zr14    Zr   0.04737   0.18550   0.63710   1.000
    Zr15    Zr   0.06730   0.16170   0.64000   1.000
    Zr16    Zr   0.96573   0.22070   0.56150   1.000
    Zr17    Zr   0.95140   0.21030   0.53340   1.000
    Zr18    Zr   0.92920   0.98990   0.88270   1.000
    Zr19    Zr   0.00000   0.00000   0.49470   1.000
    Zr20    Zr   0.00270   0.04240   0.78090   1.000
    Zr21    Zr   0.98747   0.80869   0.70101   1.000
    Zr22    Zr   0.26253   0.05869   0.95101   1.000
    Zr23    Zr   0.23747   0.44131   0.95101   1.000
    Zr24    Zr   0.51253   0.19131   0.20101   1.000
    Zr25    Zr   0.48747   0.80869   0.20101   1.000
    Zr26    Zr   0.76253   0.05869   0.45101   1.000
    Zr27    Zr   0.73747   0.44131   0.45101   1.000
    Zr28    Zr   0.01253   0.69131   0.20101   1.000
    Zr29    Zr   0.98747   0.30869   0.20101   1.000
    Zr30    Zr   0.26253   0.55869   0.45101   1.000
    Zr31    Zr   0.23747   0.94131   0.45101   1.000
    Zr32    Zr   0.51253   0.69131   0.70101   1.000
    Zr33    Zr   0.48747   0.30869   0.70101   1.000
    Zr34    Zr   0.76253   0.55869   0.95101   1.000
    Zr35    Zr   0.73747   0.94131   0.95101   1.000
    Zr36    Zr   0.01310   0.69978   0.55889   1.000
    Zr37    Zr   0.23690   0.94978   0.80889   1.000
    Zr38    Zr   0.26310   0.55022   0.80889   1.000
    Zr39    Zr   0.48690   0.30022   0.05889   1.000
    Zr40    Zr   0.51310   0.69978   0.05889   1.000
    Zr41    Zr   0.73690   0.94978   0.30889   1.000
    Zr42    Zr   0.76310   0.55022   0.30889   1.000
    Zr43    Zr   0.98690   0.80022   0.05889   1.000
    Zr44    Zr   0.01310   0.19978   0.05889   1.000
    Zr45    Zr   0.23690   0.44978   0.30889   1.000
    Zr46    Zr   0.26310   0.05022   0.30889   1.000
    Zr47    Zr   0.48690   0.80022   0.55889   1.000
    Zr48    Zr   0.51310   0.19978   0.55889   1.000
    Zr49    Zr   0.73690   0.44978   0.80889   1.000
    Zr50    Zr   0.76310   0.05022   0.80889   1.000
    Zr51    Zr   0.06026   0.78121   0.63324   1.000
    Zr52    Zr   0.18974   0.03121   0.88324   1.000
    Zr53    Zr   0.31026   0.46879   0.88324   1.000
    Zr54    Zr   0.43974   0.21879   0.13324   1.000
    Zr55    Zr   0.56026   0.78121   0.13324   1.000
    Zr56    Zr   0.68974   0.03121   0.38324   1.000
    Zr57    Zr   0.81026   0.46879   0.38324   1.000
    Zr58    Zr   0.93974   0.71879   0.13324   1.000
    Zr59    Zr   0.06026   0.28121   0.13324   1.000
    Zr60    Zr   0.18974   0.53121   0.38324   1.000
    Zr61    Zr   0.31026   0.96879   0.38324   1.000
    Zr62    Zr   0.43974   0.71879   0.63324   1.000
    Zr63    Zr   0.56026   0.28121   0.63324   1.000
    Zr64    Zr   0.68974   0.53121   0.88324   1.000
    Zr65    Zr   0.81026   0.96879   0.88324   1.000
    Zr66    Zr   0.01336   0.68112   0.68418   1.000
    Zr67    Zr   0.23664   0.93112   0.93418   1.000
    Zr68    Zr   0.26336   0.56888   0.93418   1.000
    Zr69    Zr   0.48664   0.31888   0.18418   1.000
    Zr70    Zr   0.51336   0.68112   0.18418   1.000
    Zr71    Zr   0.73664   0.93112   0.43418   1.000
    Zr72    Zr   0.76336   0.56888   0.43418   1.000
    Zr73    Zr   0.98664   0.81888   0.18418   1.000
    Zr74    Zr   0.01336   0.18112   0.18418   1.000
    Zr75    Zr   0.23664   0.43112   0.43418   1.000
    Zr76    Zr   0.26336   0.06888   0.43418   1.000
    Zr77    Zr   0.48664   0.81888   0.68418   1.000
    Zr78    Zr   0.51336   0.18112   0.68418   1.000
    Zr79    Zr   0.73664   0.43112   0.93418   1.000
    Zr80    Zr   0.76336   0.06888   0.93418   1.000
    Zr81    Zr   0.98768   0.82710   0.57488   1.000
    Zr82    Zr   0.26232   0.07710   0.82488   1.000
    Zr83    Zr   0.23768   0.42290   0.82488   1.000
    Zr84    Zr   0.51232   0.17290   0.07488   1.000
    Zr85    Zr   0.48768   0.82710   0.07488   1.000
    Zr86    Zr   0.76232   0.07710   0.32488   1.000
    Zr87    Zr   0.73768   0.42290   0.32488   1.000
    Zr88    Zr   0.01232   0.67290   0.07488   1.000
    Zr89    Zr   0.98768   0.32710   0.07488   1.000
    Zr90    Zr   0.26232   0.57710   0.32488   1.000
    Zr91    Zr   0.23768   0.92290   0.32488   1.000
    Zr92    Zr   0.51232   0.67290   0.57488   1.000
    Zr93    Zr   0.48768   0.32710   0.57488   1.000
    Zr94    Zr   0.76232   0.57710   0.82488   1.000
    Zr95    Zr   0.73768   0.92290   0.82488   1.000
    Zr96    Zr   0.94035   0.72724   0.62667   1.000
    Zr97    Zr   0.30965   0.97724   0.87667   1.000
    Zr98    Zr   0.19035   0.52276   0.87667   1.000
    Zr99    Zr   0.55965   0.27276   0.12667   1.000
    Zr100   Zr   0.44035   0.72724   0.12667   1.000
    Zr101   Zr   0.80965   0.97724   0.37667   1.000
    Zr102   Zr   0.69035   0.52276   0.37667   1.000
    Zr103   Zr   0.05965   0.77276   0.12667   1.000
    Zr104   Zr   0.94035   0.22724   0.12667   1.000
    Zr105   Zr   0.30965   0.47724   0.37667   1.000
    Zr106   Zr   0.19035   0.02276   0.37667   1.000
    Zr107   Zr   0.55965   0.77276   0.62667   1.000
    Zr108   Zr   0.44035   0.22724   0.62667   1.000
    Zr109   Zr   0.80965   0.47724   0.87667   1.000
    Zr110   Zr   0.69035   0.02276   0.87667   1.000
    Zr111   Zr   0.03782   0.70980   0.62420   1.000
    Zr112   Zr   0.21218   0.95980   0.87420   1.000
    Zr113   Zr   0.28782   0.54020   0.87420   1.000
    Zr114   Zr   0.46218   0.29020   0.12420   1.000
    Zr115   Zr   0.53782   0.70980   0.12420   1.000
    Zr116   Zr   0.71218   0.95980   0.37420   1.000
    Zr117   Zr   0.78782   0.54020   0.37420   1.000
    Zr118   Zr   0.96218   0.79020   0.12420   1.000
    Zr119   Zr   0.03782   0.20980   0.12420   1.000
    Zr120   Zr   0.21218   0.45980   0.37420   1.000
    Zr121   Zr   0.28782   0.04020   0.37420   1.000
    Zr122   Zr   0.46218   0.79020   0.62420   1.000
    Zr123   Zr   0.53782   0.20980   0.62420   1.000
    Zr124   Zr   0.71218   0.45980   0.87420   1.000
    Zr125   Zr   0.78782   0.04020   0.87420   1.000
    Zr126   Zr   0.01491   0.82160   0.63840   1.000
    Zr127   Zr   0.23509   0.07160   0.88840   1.000
    Zr128   Zr   0.26491   0.42840   0.88840   1.000
    Zr129   Zr   0.48509   0.17840   0.13840   1.000
    Zr130   Zr   0.51491   0.82160   0.13840   1.000
    Zr131   Zr   0.73509   0.07160   0.38840   1.000
    Zr132   Zr   0.76491   0.42840   0.38840   1.000
    Zr133   Zr   0.98509   0.67840   0.13840   1.000
    Zr134   Zr   0.01491   0.32160   0.13840   1.000
    Zr135   Zr   0.23509   0.57160   0.38840   1.000
    Zr136   Zr   0.26491   0.92840   0.38840   1.000
    Zr137   Zr   0.48509   0.67840   0.63840   1.000
    Zr138   Zr   0.51491   0.32160   0.63840   1.000
    Zr139   Zr   0.73509   0.57160   0.88840   1.000
    Zr140   Zr   0.76491   0.92840   0.88840   1.000
    Zr141   Zr   0.98251   0.66540   0.61870   1.000
    Zr142   Zr   0.26749   0.91540   0.86870   1.000
    Zr143   Zr   0.23251   0.58460   0.86870   1.000
    Zr144   Zr   0.51749   0.33460   0.11870   1.000
    Zr145   Zr   0.48251   0.66540   0.11870   1.000
    Zr146   Zr   0.76749   0.91540   0.36870   1.000
    Zr147   Zr   0.73251   0.58460   0.36870   1.000
    Zr148   Zr   0.01749   0.83460   0.11870   1.000
    Zr149   Zr   0.98251   0.16540   0.11870   1.000
    Zr150   Zr   0.26749   0.41540   0.36870   1.000
    Zr151   Zr   0.23251   0.08460   0.36870   1.000
    Zr152   Zr   0.51749   0.83460   0.61870   1.000
    Zr153   Zr   0.48251   0.16540   0.61870   1.000
    Zr154   Zr   0.76749   0.41540   0.86870   1.000
    Zr155   Zr   0.73251   0.08460   0.86870   1.000
    Zr156   Zr   0.97460   0.62920   0.61410   1.000
    Zr157   Zr   0.27540   0.87920   0.86410   1.000
    Zr158   Zr   0.22460   0.62080   0.86410   1.000
    Zr159   Zr   0.52540   0.37080   0.11410   1.000
    Zr160   Zr   0.47460   0.62920   0.11410   1.000
    Zr161   Zr   0.77540   0.87920   0.36410   1.000
    Zr162   Zr   0.72460   0.62080   0.36410   1.000
    Zr163   Zr   0.02540   0.87080   0.11410   1.000
    Zr164   Zr   0.97460   0.12920   0.11410   1.000
    Zr165   Zr   0.27540   0.37920   0.36410   1.000
    Zr166   Zr   0.22460   0.12080   0.36410   1.000
    Zr167   Zr   0.52540   0.87080   0.61410   1.000
    Zr168   Zr   0.47460   0.12920   0.61410   1.000
    Zr169   Zr   0.77540   0.37920   0.86410   1.000
    Zr170   Zr   0.72460   0.12080   0.86410   1.000
    Zr171   Zr   0.03407   0.75890   0.70180   1.000
    Zr172   Zr   0.21593   0.00890   0.95180   1.000
    Zr173   Zr   0.28407   0.49110   0.95180   1.000
    Zr174   Zr   0.46593   0.24110   0.20180   1.000
    Zr175   Zr   0.53407   0.75890   0.20180   1.000
    Zr176   Zr   0.71593   0.00890   0.45180   1.000
    Zr177   Zr   0.78407   0.49110   0.45180   1.000
    Zr178   Zr   0.96593   0.74110   0.20180   1.000
    Zr179   Zr   0.03407   0.25890   0.20180   1.000
    Zr180   Zr   0.21593   0.50890   0.45180   1.000
    Zr181   Zr   0.28407   0.99110   0.45180   1.000
    Zr182   Zr   0.46593   0.74110   0.70180   1.000
    Zr183   Zr   0.53407   0.25890   0.70180   1.000
    Zr184   Zr   0.71593   0.50890   0.95180   1.000
    Zr185   Zr   0.78407   0.99110   0.95180   1.000
    Zr186   Zr   0.04830   0.76100   0.73140   1.000
    Zr187   Zr   0.20170   0.01100   0.98140   1.000
    Zr188   Zr   0.29830   0.48900   0.98140   1.000
    Zr189   Zr   0.45170   0.23900   0.23140   1.000
    Zr190   Zr   0.54830   0.76100   0.23140   1.000
    Zr191   Zr   0.70170   0.01100   0.48140   1.000
    Zr192   Zr   0.79830   0.48900   0.48140   1.000
    Zr193   Zr   0.95170   0.73900   0.23140   1.000
    Zr194   Zr   0.04830   0.26100   0.23140   1.000
    Zr195   Zr   0.20170   0.51100   0.48140   1.000
    Zr196   Zr   0.29830   0.98900   0.48140   1.000
    Zr197   Zr   0.45170   0.73900   0.73140   1.000
    Zr198   Zr   0.54830   0.26100   0.73140   1.000
    Zr199   Zr   0.70170   0.51100   0.98140   1.000
    Zr200   Zr   0.79830   0.98900   0.98140   1.000
    Zr201   Zr   0.97460   0.73520   0.68120   1.000
    Zr202   Zr   0.27540   0.98520   0.93120   1.000
    Zr203   Zr   0.22460   0.51480   0.93120   1.000
    Zr204   Zr   0.52540   0.26480   0.18120   1.000
    Zr205   Zr   0.47460   0.73520   0.18120   1.000
    Zr206   Zr   0.77540   0.98520   0.43120   1.000
    Zr207   Zr   0.72460   0.51480   0.43120   1.000
    Zr208   Zr   0.02540   0.76480   0.18120   1.000
    Zr209   Zr   0.97460   0.23520   0.18120   1.000
    Zr210   Zr   0.27540   0.48520   0.43120   1.000
    Zr211   Zr   0.22460   0.01480   0.43120   1.000
    Zr212   Zr   0.52540   0.76480   0.68120   1.000
    Zr213   Zr   0.47460   0.23520   0.68120   1.000
    Zr214   Zr   0.77540   0.48520   0.93120   1.000
    Zr215   Zr   0.72460   0.01480   0.93120   1.000
    Zr216   Zr   0.97492   0.74990   0.57660   1.000
    Zr217   Zr   0.27508   0.99990   0.82660   1.000
    Zr218   Zr   0.22492   0.50010   0.82660   1.000
    Zr219   Zr   0.52508   0.25010   0.07660   1.000
    Zr220   Zr   0.47492   0.74990   0.07660   1.000
    Zr221   Zr   0.77508   0.99990   0.32660   1.000
    Zr222   Zr   0.72492   0.50010   0.32660   1.000
    Zr223   Zr   0.02508   0.75010   0.07660   1.000
    Zr224   Zr   0.97492   0.24990   0.07660   1.000
    Zr225   Zr   0.27508   0.49990   0.32660   1.000
    Zr226   Zr   0.22492   0.00010   0.32660   1.000
    Zr227   Zr   0.52508   0.75010   0.57660   1.000
    Zr228   Zr   0.47492   0.24990   0.57660   1.000
    Zr229   Zr   0.77508   0.49990   0.82660   1.000
    Zr230   Zr   0.72492   0.00010   0.82660   1.000
    Zr231   Zr   0.95263   0.81450   0.63710   1.000
    Zr232   Zr   0.29737   0.06450   0.88710   1.000
    Zr233   Zr   0.20263   0.43550   0.88710   1.000
    Zr234   Zr   0.54737   0.18550   0.13710   1.000
    Zr235   Zr   0.45263   0.81450   0.13710   1.000
    Zr236   Zr   0.79737   0.06450   0.38710   1.000
    Zr237   Zr   0.70263   0.43550   0.38710   1.000
    Zr238   Zr   0.04737   0.68550   0.13710   1.000
    Zr239   Zr   0.95263   0.31450   0.13710   1.000
    Zr240   Zr   0.29737   0.56450   0.38710   1.000
    Zr241   Zr   0.20263   0.93550   0.38710   1.000
    Zr242   Zr   0.54737   0.68550   0.63710   1.000
    Zr243   Zr   0.45263   0.31450   0.63710   1.000
    Zr244   Zr   0.79737   0.56450   0.88710   1.000
    Zr245   Zr   0.70263   0.93550   0.88710   1.000
    Zr246   Zr   0.93270   0.83830   0.64000   1.000
    Zr247   Zr   0.31730   0.08830   0.89000   1.000
    Zr248   Zr   0.18270   0.41170   0.89000   1.000
    Zr249   Zr   0.56730   0.16170   0.14000   1.000
    Zr250   Zr   0.43270   0.83830   0.14000   1.000
    Zr251   Zr   0.81730   0.08830   0.39000   1.000
    Zr252   Zr   0.68270   0.41170   0.39000   1.000
    Zr253   Zr   0.06730   0.66170   0.14000   1.000
    Zr254   Zr   0.93270   0.33830   0.14000   1.000
    Zr255   Zr   0.31730   0.58830   0.39000   1.000
    Zr256   Zr   0.18270   0.91170   0.39000   1.000
    Zr257   Zr   0.56730   0.66170   0.64000   1.000
    Zr258   Zr   0.43270   0.33830   0.64000   1.000
    Zr259   Zr   0.81730   0.58830   0.89000   1.000
    Zr260   Zr   0.68270   0.91170   0.89000   1.000
    Zr261   Zr   0.03427   0.77930   0.56150   1.000
    Zr262   Zr   0.21573   0.02930   0.81150   1.000
    Zr263   Zr   0.28427   0.47070   0.81150   1.000
    Zr264   Zr   0.46573   0.22070   0.06150   1.000
    Zr265   Zr   0.53427   0.77930   0.06150   1.000
    Zr266   Zr   0.71573   0.02930   0.31150   1.000
    Zr267   Zr   0.78427   0.47070   0.31150   1.000
    Zr268   Zr   0.96573   0.72070   0.06150   1.000
    Zr269   Zr   0.03427   0.27930   0.06150   1.000
    Zr270   Zr   0.21573   0.52930   0.31150   1.000
    Zr271   Zr   0.28427   0.97070   0.31150   1.000
    Zr272   Zr   0.46573   0.72070   0.56150   1.000
    Zr273   Zr   0.53427   0.27930   0.56150   1.000
    Zr274   Zr   0.71573   0.52930   0.81150   1.000
    Zr275   Zr   0.78427   0.97070   0.81150   1.000
    Zr276   Zr   0.04860   0.78970   0.53340   1.000
    Zr277   Zr   0.20140   0.03970   0.78340   1.000
    Zr278   Zr   0.29860   0.46030   0.78340   1.000
    Zr279   Zr   0.45140   0.21030   0.03340   1.000
    Zr280   Zr   0.54860   0.78970   0.03340   1.000
    Zr281   Zr   0.70140   0.03970   0.28340   1.000
    Zr282   Zr   0.79860   0.46030   0.28340   1.000
    Zr283   Zr   0.95140   0.71030   0.03340   1.000
    Zr284   Zr   0.04860   0.28970   0.03340   1.000
    Zr285   Zr   0.20140   0.53970   0.28340   1.000
    Zr286   Zr   0.29860   0.96030   0.28340   1.000
    Zr287   Zr   0.45140   0.71030   0.53340   1.000
    Zr288   Zr   0.54860   0.28970   0.53340   1.000
    Zr289   Zr   0.70140   0.53970   0.78340   1.000
    Zr290   Zr   0.79860   0.96030   0.78340   1.000
    Zr291   Zr   0.07080   0.01010   0.88270   1.000
    Zr292   Zr   0.17920   0.26010   0.13270   1.000
    Zr293   Zr   0.32080   0.23990   0.13270   1.000
    Zr294   Zr   0.42920   0.98990   0.38270   1.000
    Zr295   Zr   0.57080   0.01010   0.38270   1.000
    Zr296   Zr   0.67920   0.26010   0.63270   1.000
    Zr297   Zr   0.82080   0.23990   0.63270   1.000
    Zr298   Zr   0.92920   0.48990   0.38270   1.000
    Zr299   Zr   0.07080   0.51010   0.38270   1.000
    Zr300   Zr   0.17920   0.76010   0.63270   1.000
    Zr301   Zr   0.32080   0.73990   0.63270   1.000
    Zr302   Zr   0.42920   0.48990   0.88270   1.000
    Zr303   Zr   0.57080   0.51010   0.88270   1.000
    Zr304   Zr   0.67920   0.76010   0.13270   1.000
    Zr305   Zr   0.82080   0.73990   0.13270   1.000
    Zr306   Zr   0.25000   0.25000   0.74470   1.000
    Zr307   Zr   0.50000   0.00000   0.99470   1.000
    Zr308   Zr   0.75000   0.25000   0.24470   1.000
    Zr309   Zr   0.00000   0.50000   0.99470   1.000
    Zr310   Zr   0.25000   0.75000   0.24470   1.000
    Zr311   Zr   0.50000   0.50000   0.49470   1.000
    Zr312   Zr   0.75000   0.75000   0.74470   1.000
    Zr313   Zr   0.99730   0.95760   0.78090   1.000
    Zr314   Zr   0.25270   0.20760   0.03090   1.000
    Zr315   Zr   0.24730   0.29240   0.03090   1.000
    Zr316   Zr   0.50270   0.04240   0.28090   1.000
    Zr317   Zr   0.49730   0.95760   0.28090   1.000
    Zr318   Zr   0.75270   0.20760   0.53090   1.000
    Zr319   Zr   0.74730   0.29240   0.53090   1.000
    Zr320   Zr   0.00270   0.54240   0.28090   1.000
    Zr321   Zr   0.99730   0.45760   0.28090   1.000
    Zr322   Zr   0.25270   0.70760   0.53090   1.000
    Zr323   Zr   0.24730   0.79240   0.53090   1.000
    Zr324   Zr   0.50270   0.54240   0.78090   1.000
    Zr325   Zr   0.49730   0.45760   0.78090   1.000
    Zr326   Zr   0.75270   0.70760   0.03090   1.000
    Zr327   Zr   0.74730   0.79240   0.03090   1.000
    O328    O    0.54144   0.78450   0.04745   1.000
    O329    O    0.04143   0.28450   0.04745   1.000
    O330    O    0.45857   0.21550   0.04745   1.000
    O331    O    0.95856   0.71550   0.04745   1.000
    O332    O    0.02369   0.23954   0.06020   1.000
    O333    O    0.99401   0.22484   0.06775   1.000
    O334    O    0.97631   0.76046   0.06020   1.000
    O335    O    0.00599   0.77516   0.06775   1.000
    O336    O    0.52369   0.73954   0.06020   1.000
    O337    O    0.49401   0.72484   0.06775   1.000
    O338    O    0.47631   0.26046   0.06020   1.000
    O339    O    0.50599   0.27516   0.06775   1.000
    O340    O    0.02985   0.67920   0.10599   1.000
    O341    O    0.99871   0.67565   0.10664   1.000
    O342    O    0.52985   0.17920   0.10599   1.000
    O343    O    0.49871   0.17565   0.10664   1.000
    O344    O    0.47015   0.82080   0.10599   1.000
    O345    O    0.50130   0.82435   0.10664   1.000
    O346    O    0.97016   0.32080   0.10599   1.000
    O347    O    0.00130   0.32435   0.10664   1.000
    O348    O    0.95764   0.23857   0.10164   1.000
    O349    O    0.04236   0.76143   0.10164   1.000
    O350    O    0.45764   0.73857   0.10164   1.000
    O351    O    0.54237   0.26143   0.10164   1.000
    O352    O    0.02145   0.85270   0.11640   1.000
    O353    O    0.47856   0.64730   0.11640   1.000
    O354    O    0.52145   0.35270   0.11640   1.000
    O355    O    0.97856   0.14730   0.11640   1.000
    O356    O    0.49794   0.67326   0.15144   1.000
    O357    O    0.00207   0.82674   0.15144   1.000
    O358    O    0.50206   0.32674   0.15144   1.000
    O359    O    0.99794   0.17326   0.15144   1.000
    O360    O    0.54904   0.74551   0.12872   1.000
    O361    O    0.52559   0.69546   0.15419   1.000
    O362    O    0.45096   0.25450   0.12872   1.000
    O363    O    0.47441   0.30454   0.15419   1.000
    O364    O    0.95096   0.75450   0.12872   1.000
    O365    O    0.97441   0.80454   0.15419   1.000
    O366    O    0.04904   0.24551   0.12872   1.000
    O367    O    0.02559   0.19546   0.15419   1.000
    O368    O    0.95748   0.23122   0.15394   1.000
    O369    O    0.04252   0.76878   0.15394   1.000
    O370    O    0.45747   0.73122   0.15394   1.000
    O371    O    0.54253   0.26878   0.15394   1.000
    O372    O    0.03758   0.30140   0.13582   1.000
    O373    O    0.96242   0.69859   0.13582   1.000
    O374    O    0.46242   0.19860   0.13582   1.000
    O375    O    0.53759   0.80141   0.13582   1.000
    O376    O    0.94266   0.32640   0.13855   1.000
    O377    O    0.44267   0.82640   0.13855   1.000
    O378    O    0.05734   0.67360   0.13855   1.000
    O379    O    0.55734   0.17360   0.13855   1.000
    O380    O    0.98104   0.27194   0.19111   1.000
    O381    O    0.51897   0.22806   0.19111   1.000
    O382    O    0.48103   0.77195   0.19111   1.000
    O383    O    0.01897   0.72806   0.19111   1.000
    O384    O    0.52372   0.72001   0.19299   1.000
    O385    O    0.47629   0.27999   0.19299   1.000
    O386    O    0.97628   0.77999   0.19299   1.000
    O387    O    0.02372   0.22001   0.19299   1.000
    O388    O    0.45881   0.24005   0.21660   1.000
    O389    O    0.54119   0.75995   0.21660   1.000
    O390    O    0.95882   0.74005   0.21660   1.000
    O391    O    0.04119   0.25995   0.21660   1.000
    O392    O    0.70857   0.03450   0.29745   1.000
    O393    O    0.79143   0.46550   0.29745   1.000
    O394    O    0.20857   0.53450   0.29745   1.000
    O395    O    0.29144   0.96550   0.29745   1.000
    O396    O    0.72631   0.98954   0.31020   1.000
    O397    O    0.75599   0.97484   0.31775   1.000
    O398    O    0.77369   0.51046   0.31020   1.000
    O399    O    0.74401   0.52516   0.31775   1.000
    O400    O    0.22631   0.48954   0.31020   1.000
    O401    O    0.25599   0.47484   0.31775   1.000
    O402    O    0.27369   0.01046   0.31020   1.000
    O403    O    0.24401   0.02516   0.31775   1.000
    O404    O    0.27985   0.57080   0.35599   1.000
    O405    O    0.24871   0.57435   0.35664   1.000
    O406    O    0.22015   0.92920   0.35599   1.000
    O407    O    0.25129   0.92565   0.35664   1.000
    O408    O    0.72015   0.42920   0.35599   1.000
    O409    O    0.75129   0.42565   0.35664   1.000
    O410    O    0.77985   0.07080   0.35599   1.000
    O411    O    0.74871   0.07435   0.35664   1.000
    O412    O    0.20764   0.01143   0.35164   1.000
    O413    O    0.79236   0.98857   0.35164   1.000
    O414    O    0.70764   0.51143   0.35164   1.000
    O415    O    0.29236   0.48857   0.35164   1.000
    O416    O    0.77145   0.89730   0.36640   1.000
    O417    O    0.27144   0.39730   0.36640   1.000
    O418    O    0.22855   0.10270   0.36640   1.000
    O419    O    0.72856   0.60270   0.36640   1.000
    O420    O    0.74794   0.57674   0.40144   1.000
    O421    O    0.75206   0.92326   0.40144   1.000
    O422    O    0.24794   0.07674   0.40144   1.000
    O423    O    0.25206   0.42326   0.40144   1.000
    O424    O    0.20096   0.49551   0.37872   1.000
    O425    O    0.22441   0.44546   0.40419   1.000
    O426    O    0.79904   0.50450   0.37872   1.000
    O427    O    0.77559   0.55454   0.40419   1.000
    O428    O    0.70096   0.99551   0.37872   1.000
    O429    O    0.72441   0.94546   0.40419   1.000
    O430    O    0.29904   0.00450   0.37872   1.000
    O431    O    0.27559   0.05454   0.40419   1.000
    O432    O    0.70748   0.51878   0.40394   1.000
    O433    O    0.29253   0.48122   0.40394   1.000
    O434    O    0.79253   0.98122   0.40394   1.000
    O435    O    0.20747   0.01878   0.40394   1.000
    O436    O    0.28759   0.94859   0.38582   1.000
    O437    O    0.21241   0.55141   0.38582   1.000
    O438    O    0.78758   0.44860   0.38582   1.000
    O439    O    0.71242   0.05140   0.38582   1.000
    O440    O    0.19267   0.92360   0.38855   1.000
    O441    O    0.30734   0.57640   0.38855   1.000
    O442    O    0.69267   0.42360   0.38855   1.000
    O443    O    0.80734   0.07640   0.38855   1.000
    O444    O    0.23104   0.97806   0.44111   1.000
    O445    O    0.26897   0.52194   0.44111   1.000
    O446    O    0.73104   0.47805   0.44111   1.000
    O447    O    0.76897   0.02195   0.44111   1.000
    O448    O    0.77372   0.52999   0.44299   1.000
    O449    O    0.72628   0.97001   0.44299   1.000
    O450    O    0.22628   0.47001   0.44299   1.000
    O451    O    0.27372   0.02999   0.44299   1.000
    O452    O    0.79119   0.49005   0.46660   1.000
    O453    O    0.70881   0.00995   0.46660   1.000
    O454    O    0.29119   0.99005   0.46660   1.000
    O455    O    0.20881   0.50995   0.46660   1.000
    O456    O    0.95857   0.21550   0.54745   1.000
    O457    O    0.54144   0.28450   0.54745   1.000
    O458    O    0.04143   0.78450   0.54745   1.000
    O459    O    0.45856   0.71550   0.54745   1.000
    O460    O    0.97632   0.26046   0.56019   1.000
    O461    O    0.00599   0.27516   0.56775   1.000
    O462    O    0.02369   0.73954   0.56020   1.000
    O463    O    0.99401   0.72484   0.56775   1.000
    O464    O    0.47631   0.76046   0.56020   1.000
    O465    O    0.50599   0.77516   0.56775   1.000
    O466    O    0.52369   0.23954   0.56020   1.000
    O467    O    0.49401   0.22484   0.56775   1.000
    O468    O    0.02985   0.17920   0.60599   1.000
    O469    O    0.99871   0.17565   0.60664   1.000
    O470    O    0.97016   0.82080   0.60599   1.000
    O471    O    0.00130   0.82435   0.60664   1.000
    O472    O    0.52985   0.67920   0.60599   1.000
    O473    O    0.49871   0.67565   0.60664   1.000
    O474    O    0.47016   0.32080   0.60599   1.000
    O475    O    0.50130   0.32435   0.60664   1.000
    O476    O    0.04236   0.26143   0.60164   1.000
    O477    O    0.54237   0.76143   0.60164   1.000
    O478    O    0.45764   0.23857   0.60164   1.000
    O479    O    0.95764   0.73857   0.60164   1.000
    O480    O    0.02144   0.35270   0.61640   1.000
    O481    O    0.47856   0.14730   0.61640   1.000
    O482    O    0.52145   0.85270   0.61640   1.000
    O483    O    0.97856   0.64730   0.61640   1.000
    O484    O    0.00207   0.32674   0.65144   1.000
    O485    O    0.49794   0.17326   0.65144   1.000
    O486    O    0.99794   0.67326   0.65144   1.000
    O487    O    0.50206   0.82674   0.65144   1.000
    O488    O    0.95096   0.25450   0.62872   1.000
    O489    O    0.97441   0.30454   0.65419   1.000
    O490    O    0.54904   0.24550   0.62872   1.000
    O491    O    0.52559   0.19546   0.65419   1.000
    O492    O    0.45096   0.75450   0.62872   1.000
    O493    O    0.47441   0.80454   0.65419   1.000
    O494    O    0.04904   0.74551   0.62872   1.000
    O495    O    0.02559   0.69546   0.65419   1.000
    O496    O    0.04252   0.26878   0.65394   1.000
    O497    O    0.54253   0.76878   0.65394   1.000
    O498    O    0.95748   0.73122   0.65394   1.000
    O499    O    0.45747   0.23122   0.65394   1.000
    O500    O    0.96242   0.19859   0.63582   1.000
    O501    O    0.53759   0.30140   0.63582   1.000
    O502    O    0.03758   0.80141   0.63582   1.000
    O503    O    0.46241   0.69859   0.63582   1.000
    O504    O    0.05734   0.17360   0.63855   1.000
    O505    O    0.44267   0.32640   0.63855   1.000
    O506    O    0.55734   0.67360   0.63855   1.000
    O507    O    0.94266   0.82640   0.63855   1.000
    O508    O    0.01896   0.22805   0.69111   1.000
    O509    O    0.98104   0.77195   0.69111   1.000
    O510    O    0.51897   0.72806   0.69111   1.000
    O511    O    0.48103   0.27195   0.69111   1.000
    O512    O    0.97628   0.27999   0.69299   1.000
    O513    O    0.47628   0.77999   0.69299   1.000
    O514    O    0.52372   0.22001   0.69299   1.000
    O515    O    0.02372   0.72001   0.69299   1.000
    O516    O    0.95882   0.24005   0.71660   1.000
    O517    O    0.54119   0.25995   0.71660   1.000
    O518    O    0.04119   0.75995   0.71660   1.000
    O519    O    0.45881   0.74005   0.71660   1.000
    O520    O    0.20857   0.03450   0.79745   1.000
    O521    O    0.29144   0.46550   0.79745   1.000
    O522    O    0.70857   0.53450   0.79745   1.000
    O523    O    0.79143   0.96550   0.79745   1.000
    O524    O    0.77369   0.01046   0.81020   1.000
    O525    O    0.74401   0.02516   0.81775   1.000
    O526    O    0.22632   0.98954   0.81020   1.000
    O527    O    0.25599   0.97484   0.81775   1.000
    O528    O    0.27369   0.51046   0.81020   1.000
    O529    O    0.24401   0.52516   0.81775   1.000
    O530    O    0.72631   0.48954   0.81020   1.000
    O531    O    0.75599   0.47484   0.81775   1.000
    O532    O    0.22015   0.42920   0.85599   1.000
    O533    O    0.25129   0.42565   0.85664   1.000
    O534    O    0.27985   0.07080   0.85599   1.000
    O535    O    0.24871   0.07435   0.85664   1.000
    O536    O    0.77985   0.57080   0.85599   1.000
    O537    O    0.74871   0.57435   0.85664   1.000
    O538    O    0.72015   0.92920   0.85599   1.000
    O539    O    0.75129   0.92565   0.85664   1.000
    O540    O    0.29236   0.98857   0.85164   1.000
    O541    O    0.20764   0.51143   0.85164   1.000
    O542    O    0.79236   0.48857   0.85164   1.000
    O543    O    0.70764   0.01143   0.85164   1.000
    O544    O    0.27144   0.89730   0.86640   1.000
    O545    O    0.22856   0.60270   0.86640   1.000
    O546    O    0.77145   0.39730   0.86640   1.000
    O547    O    0.72856   0.10270   0.86640   1.000
    O548    O    0.74794   0.07674   0.90144   1.000
    O549    O    0.75206   0.42326   0.90144   1.000
    O550    O    0.25206   0.92326   0.90144   1.000
    O551    O    0.24794   0.57674   0.90144   1.000
    O552    O    0.70096   0.49551   0.87872   1.000
    O553    O    0.72441   0.44546   0.90419   1.000
    O554    O    0.29904   0.50450   0.87872   1.000
    O555    O    0.27559   0.55454   0.90419   1.000
    O556    O    0.20096   0.99550   0.87872   1.000
    O557    O    0.22441   0.94546   0.90419   1.000
    O558    O    0.79904   0.00450   0.87872   1.000
    O559    O    0.77559   0.05454   0.90419   1.000
    O560    O    0.29252   0.98122   0.90394   1.000
    O561    O    0.20747   0.51878   0.90394   1.000
    O562    O    0.79253   0.48122   0.90394   1.000
    O563    O    0.70748   0.01878   0.90394   1.000
    O564    O    0.78758   0.94859   0.88582   1.000
    O565    O    0.71242   0.55140   0.88582   1.000
    O566    O    0.28759   0.44860   0.88582   1.000
    O567    O    0.21242   0.05141   0.88582   1.000
    O568    O    0.80734   0.57640   0.88855   1.000
    O569    O    0.69267   0.92360   0.88855   1.000
    O570    O    0.19267   0.42360   0.88855   1.000
    O571    O    0.30734   0.07640   0.88855   1.000
    O572    O    0.23103   0.47806   0.94111   1.000
    O573    O    0.76897   0.52194   0.94111   1.000
    O574    O    0.73104   0.97806   0.94111   1.000
    O575    O    0.26897   0.02195   0.94111   1.000
    O576    O    0.77372   0.02999   0.94299   1.000
    O577    O    0.72628   0.47001   0.94299   1.000
    O578    O    0.27372   0.52999   0.94299   1.000
    O579    O    0.22629   0.97001   0.94299   1.000
    O580    O    0.70881   0.50995   0.96660   1.000
    O581    O    0.79119   0.99005   0.96660   1.000
    O582    O    0.29119   0.49005   0.96660   1.000
    O583    O    0.20881   0.00995   0.96660   1.000
    O584    O    0.97454   0.29521   0.59155   1.000
    O585    O    0.99881   0.18485   0.66971   1.000
    O586    O    0.00219   0.31741   0.58880   1.000
    O587    O    0.03857   0.30368   0.62269   1.000
    O588    O    0.98923   0.21620   0.70141   1.000
    O589    O    0.95283   0.22995   0.66752   1.000
    O590    O    0.00602   0.29184   0.68269   1.000
    O591    O    0.01870   0.21150   0.57574   1.000
    O592    O    0.02995   0.18840   0.66906   1.000
    O593    O    0.05351   0.22913   0.63189   1.000
    O594    O    0.95274   0.21974   0.59737   1.000
    O595    O    0.98903   0.19680   0.56819   1.000
    O596    O    0.02546   0.70479   0.59155   1.000
    O597    O    0.22454   0.95479   0.84155   1.000
    O598    O    0.27546   0.54521   0.84155   1.000
    O599    O    0.47454   0.29521   0.09155   1.000
    O600    O    0.52546   0.70479   0.09155   1.000
    O601    O    0.72454   0.95479   0.34155   1.000
    O602    O    0.77546   0.54521   0.34155   1.000
    O603    O    0.97454   0.79521   0.09155   1.000
    O604    O    0.02546   0.20479   0.09155   1.000
    O605    O    0.22454   0.45479   0.34155   1.000
    O606    O    0.27546   0.04521   0.34155   1.000
    O607    O    0.47454   0.79521   0.59155   1.000
    O608    O    0.52546   0.20479   0.59155   1.000
    O609    O    0.72454   0.45479   0.84155   1.000
    O610    O    0.77546   0.04521   0.84155   1.000
    O611    O    0.00119   0.81515   0.66971   1.000
    O612    O    0.24881   0.06515   0.91971   1.000
    O613    O    0.25119   0.43486   0.91971   1.000
    O614    O    0.49881   0.18486   0.16971   1.000
    O615    O    0.50119   0.81515   0.16971   1.000
    O616    O    0.74881   0.06515   0.41971   1.000
    O617    O    0.75119   0.43485   0.41971   1.000
    O618    O    0.99881   0.68486   0.16971   1.000
    O619    O    0.00119   0.31515   0.16971   1.000
    O620    O    0.24881   0.56515   0.41971   1.000
    O621    O    0.25119   0.93486   0.41971   1.000
    O622    O    0.49881   0.68486   0.66971   1.000
    O623    O    0.50119   0.31515   0.66971   1.000
    O624    O    0.74881   0.56515   0.91971   1.000
    O625    O    0.75119   0.93485   0.91971   1.000
    O626    O    0.99780   0.68259   0.58880   1.000
    O627    O    0.96143   0.69632   0.62269   1.000
    O628    O    0.25219   0.93259   0.83880   1.000
    O629    O    0.28857   0.94632   0.87269   1.000
    O630    O    0.24781   0.56741   0.83880   1.000
    O631    O    0.21143   0.55368   0.87269   1.000
    O632    O    0.50220   0.31741   0.08880   1.000
    O633    O    0.53857   0.30368   0.12269   1.000
    O634    O    0.49781   0.68259   0.08880   1.000
    O635    O    0.46143   0.69632   0.12269   1.000
    O636    O    0.75219   0.93259   0.33880   1.000
    O637    O    0.78857   0.94632   0.37269   1.000
    O638    O    0.74781   0.56741   0.33880   1.000
    O639    O    0.71143   0.55368   0.37269   1.000
    O640    O    0.00220   0.81741   0.08880   1.000
    O641    O    0.03857   0.80368   0.12269   1.000
    O642    O    0.99780   0.18259   0.08880   1.000
    O643    O    0.96143   0.19632   0.12269   1.000
    O644    O    0.25219   0.43259   0.33880   1.000
    O645    O    0.28857   0.44632   0.37269   1.000
    O646    O    0.24780   0.06741   0.33880   1.000
    O647    O    0.21143   0.05368   0.37269   1.000
    O648    O    0.50220   0.81741   0.58880   1.000
    O649    O    0.53857   0.80368   0.62269   1.000
    O650    O    0.49781   0.18259   0.58880   1.000
    O651    O    0.46143   0.19632   0.62269   1.000
    O652    O    0.75219   0.43259   0.83880   1.000
    O653    O    0.78857   0.44632   0.87269   1.000
    O654    O    0.74781   0.06741   0.83880   1.000
    O655    O    0.71143   0.05368   0.87269   1.000
    O656    O    0.01077   0.78380   0.70141   1.000
    O657    O    0.04717   0.77006   0.66752   1.000
    O658    O    0.23923   0.03379   0.95141   1.000
    O659    O    0.20284   0.02005   0.91752   1.000
    O660    O    0.26077   0.46621   0.95141   1.000
    O661    O    0.29717   0.47995   0.91752   1.000
    O662    O    0.48923   0.21621   0.20141   1.000
    O663    O    0.45283   0.22995   0.16752   1.000
    O664    O    0.51077   0.78380   0.20141   1.000
    O665    O    0.54717   0.77006   0.16752   1.000
    O666    O    0.73923   0.03379   0.45141   1.000
    O667    O    0.70283   0.02005   0.41752   1.000
    O668    O    0.76077   0.46620   0.45141   1.000
    O669    O    0.79717   0.47995   0.41752   1.000
    O670    O    0.98923   0.71620   0.20141   1.000
    O671    O    0.95283   0.72995   0.16752   1.000
    O672    O    0.01077   0.28380   0.20141   1.000
    O673    O    0.04717   0.27005   0.16752   1.000
    O674    O    0.23923   0.53380   0.45141   1.000
    O675    O    0.20283   0.52006   0.41752   1.000
    O676    O    0.26077   0.96620   0.45141   1.000
    O677    O    0.29717   0.97995   0.41752   1.000
    O678    O    0.48923   0.71620   0.70141   1.000
    O679    O    0.45283   0.72995   0.66752   1.000
    O680    O    0.51077   0.28380   0.70141   1.000
    O681    O    0.54717   0.27005   0.66752   1.000
    O682    O    0.73923   0.53380   0.95141   1.000
    O683    O    0.70283   0.52005   0.91752   1.000
    O684    O    0.76077   0.96620   0.95141   1.000
    O685    O    0.79717   0.97994   0.91752   1.000
    O686    O    0.99398   0.70816   0.68269   1.000
    O687    O    0.25602   0.95816   0.93269   1.000
    O688    O    0.24398   0.54184   0.93269   1.000
    O689    O    0.50602   0.29184   0.18269   1.000
    O690    O    0.49398   0.70816   0.18269   1.000
    O691    O    0.75602   0.95816   0.43269   1.000
    O692    O    0.74398   0.54184   0.43269   1.000
    O693    O    0.00602   0.79184   0.18269   1.000
    O694    O    0.99398   0.20816   0.18269   1.000
    O695    O    0.25602   0.45816   0.43269   1.000
    O696    O    0.24398   0.04184   0.43269   1.000
    O697    O    0.50602   0.79184   0.68269   1.000
    O698    O    0.49398   0.20816   0.68269   1.000
    O699    O    0.75602   0.45816   0.93269   1.000
    O700    O    0.74398   0.04184   0.93269   1.000
    O701    O    0.98130   0.78850   0.57574   1.000
    O702    O    0.26870   0.03850   0.82574   1.000
    O703    O    0.23130   0.46150   0.82574   1.000
    O704    O    0.51870   0.21150   0.07574   1.000
    O705    O    0.48130   0.78850   0.07574   1.000
    O706    O    0.76870   0.03850   0.32574   1.000
    O707    O    0.73130   0.46150   0.32574   1.000
    O708    O    0.01870   0.71150   0.07574   1.000
    O709    O    0.98130   0.28850   0.07574   1.000
    O710    O    0.26870   0.53850   0.32574   1.000
    O711    O    0.23130   0.96150   0.32574   1.000
    O712    O    0.51870   0.71150   0.57574   1.000
    O713    O    0.48130   0.28850   0.57574   1.000
    O714    O    0.76870   0.53850   0.82574   1.000
    O715    O    0.73130   0.96150   0.82574   1.000
    O716    O    0.97005   0.81160   0.66906   1.000
    O717    O    0.94649   0.77087   0.63189   1.000
    O718    O    0.27995   0.06160   0.91906   1.000
    O719    O    0.30351   0.02087   0.88189   1.000
    O720    O    0.22005   0.43841   0.91906   1.000
    O721    O    0.19649   0.47913   0.88189   1.000
    O722    O    0.52995   0.18840   0.16906   1.000
    O723    O    0.55351   0.22913   0.13189   1.000
    O724    O    0.47005   0.81160   0.16906   1.000
    O725    O    0.44649   0.77087   0.13189   1.000
    O726    O    0.77995   0.06160   0.41906   1.000
    O727    O    0.80351   0.02087   0.38189   1.000
    O728    O    0.72005   0.43841   0.41906   1.000
    O729    O    0.69649   0.47913   0.38189   1.000
    O730    O    0.02995   0.68841   0.16906   1.000
    O731    O    0.05351   0.72913   0.13189   1.000
    O732    O    0.97005   0.31160   0.16906   1.000
    O733    O    0.94649   0.27087   0.13189   1.000
    O734    O    0.27995   0.56159   0.41906   1.000
    O735    O    0.30351   0.52087   0.38189   1.000
    O736    O    0.22005   0.93841   0.41906   1.000
    O737    O    0.19649   0.97913   0.38189   1.000
    O738    O    0.52995   0.68841   0.66906   1.000
    O739    O    0.55351   0.72913   0.63189   1.000
    O740    O    0.47005   0.31160   0.66906   1.000
    O741    O    0.44649   0.27087   0.63189   1.000
    O742    O    0.77995   0.56159   0.91906   1.000
    O743    O    0.80351   0.52087   0.88189   1.000
    O744    O    0.72005   0.93840   0.91906   1.000
    O745    O    0.69649   0.97913   0.88189   1.000
    O746    O    0.04727   0.78026   0.59737   1.000
    O747    O    0.01098   0.80320   0.56819   1.000
    O748    O    0.20274   0.03025   0.84737   1.000
    O749    O    0.23903   0.05320   0.81819   1.000
    O750    O    0.29727   0.46975   0.84737   1.000
    O751    O    0.26098   0.44680   0.81819   1.000
    O752    O    0.45274   0.21975   0.09737   1.000
    O753    O    0.48903   0.19680   0.06819   1.000
    O754    O    0.54727   0.78026   0.09737   1.000
    O755    O    0.51098   0.80320   0.06819   1.000
    O756    O    0.70274   0.03025   0.34737   1.000
    O757    O    0.73903   0.05320   0.31819   1.000
    O758    O    0.79727   0.46975   0.34737   1.000
    O759    O    0.76098   0.44680   0.31819   1.000
    O760    O    0.95274   0.71975   0.09737   1.000
    O761    O    0.98903   0.69680   0.06819   1.000
    O762    O    0.04727   0.28025   0.09737   1.000
    O763    O    0.01098   0.30320   0.06819   1.000
    O764    O    0.20273   0.53026   0.34737   1.000
    O765    O    0.23902   0.55320   0.31819   1.000
    O766    O    0.29727   0.96975   0.34737   1.000
    O767    O    0.26098   0.94680   0.31819   1.000
    O768    O    0.45273   0.71975   0.59737   1.000
    O769    O    0.48902   0.69680   0.56819   1.000
    O770    O    0.54727   0.28025   0.59737   1.000
    O771    O    0.51098   0.30320   0.56819   1.000
    O772    O    0.70274   0.53025   0.84737   1.000
    O773    O    0.73903   0.55320   0.81819   1.000
    O774    O    0.79727   0.96974   0.84737   1.000
    O775    O    0.76098   0.94680   0.81819   1.000
    N776    N    0.10659   0.39707   0.48941   1.000
    O777    O    0.13878   0.45281   0.44679   1.000
    O778    O    0.15805   0.41124   0.46760   1.000
    O779    O    0.08758   0.34820   0.54390   1.000
    O780    O    0.05778   0.35857   0.51528   1.000
    N781    N    0.00090   0.22099   0.37957   1.000
    O782    O    0.00609   0.20323   0.30120   1.000
    O783    O    0.00569   0.19905   0.45765   1.000
    O784    O    0.99528   0.25225   0.45068   1.000
    O785    O    0.99524   0.25584   0.30874   1.000
    N786    N    0.10814   0.40797   0.75343   1.000
    O787    O    0.08861   0.35692   0.70041   1.000
    O788    O    0.13980   0.45490   0.80448   1.000
    O789    O    0.05881   0.37515   0.72526   1.000
    O790    O    0.15929   0.41541   0.78113   1.000
    N791    N    0.89379   0.08632   0.76298   1.000
    O792    O    0.84214   0.06929   0.77979   1.000
    O793    O    0.86153   0.03574   0.81048   1.000
    O794    O    0.94239   0.12699   0.73947   1.000
    O795    O    0.91244   0.13863   0.71168   1.000
    N796    N    0.91224   0.19762   0.39826   1.000
    N797    N    0.89189   0.07479   0.51406   1.000
    O798    O    0.94113   0.11032   0.54025   1.000
    O799    O    0.84067   0.06529   0.49036   1.000
    O800    O    0.86015   0.03323   0.45857   1.000
    O801    O    0.91122   0.12974   0.56376   1.000
    N802    N    0.95237   0.41240   0.54850   1.000
    O803    O    0.96618   0.37643   0.55180   1.000
    N804    N    0.92667   0.97480   0.37783   1.000
    N805    N    0.91674   0.23446   0.85254   1.000
    N806    N    0.02175   0.08165   0.46390   1.000
    N807    N    0.00000   0.50000   0.77851   1.000
    N808    N    0.99960   0.39250   0.40850   1.000
    N809    N    0.93750   0.39650   0.39450   1.000
    N810    N    0.35659   0.85293   0.73941   1.000
    O811    O    0.40805   0.83876   0.71760   1.000
    O812    O    0.38877   0.79719   0.69679   1.000
    O813    O    0.33758   0.90180   0.79390   1.000
    O814    O    0.30777   0.89143   0.76528   1.000
    N815    N    0.14341   0.64707   0.73941   1.000
    O816    O    0.09195   0.66124   0.71760   1.000
    O817    O    0.11122   0.70281   0.69679   1.000
    O818    O    0.16242   0.59820   0.79390   1.000
    O819    O    0.19223   0.60857   0.76528   1.000
    N820    N    0.60659   0.39708   0.98941   1.000
    O821    O    0.65805   0.41124   0.96760   1.000
    O822    O    0.63878   0.45282   0.94679   1.000
    O823    O    0.58758   0.34820   0.04390   1.000
    O824    O    0.55778   0.35857   0.01528   1.000
    N825    N    0.39341   0.60292   0.98941   1.000
    O826    O    0.34195   0.58876   0.96760   1.000
    O827    O    0.36123   0.54718   0.94679   1.000
    O828    O    0.41242   0.65180   0.04390   1.000
    O829    O    0.44223   0.64143   0.01528   1.000
    N830    N    0.85659   0.85293   0.23941   1.000
    O831    O    0.90805   0.83876   0.21760   1.000
    O832    O    0.88878   0.79719   0.19679   1.000
    O833    O    0.83758   0.90180   0.29390   1.000
    O834    O    0.80778   0.89143   0.26528   1.000
    N835    N    0.64341   0.64708   0.23941   1.000
    O836    O    0.59195   0.66124   0.21760   1.000
    O837    O    0.61123   0.70281   0.19679   1.000
    O838    O    0.66242   0.59820   0.29390   1.000
    O839    O    0.69223   0.60857   0.26528   1.000
    N840    N    0.10659   0.89707   0.98941   1.000
    O841    O    0.15805   0.91124   0.96760   1.000
    O842    O    0.13878   0.95281   0.94679   1.000
    O843    O    0.08758   0.84820   0.04390   1.000
    O844    O    0.05778   0.85857   0.01528   1.000
    N845    N    0.89186   0.59203   0.75343   1.000
    O846    O    0.86020   0.54510   0.80448   1.000
    O847    O    0.84071   0.58459   0.78113   1.000
    O848    O    0.91139   0.64308   0.70041   1.000
    O849    O    0.94119   0.62485   0.72526   1.000
    N850    N    0.35814   0.84203   0.00343   1.000
    O851    O    0.38980   0.79510   0.05448   1.000
    O852    O    0.40929   0.83459   0.03113   1.000
    O853    O    0.33861   0.89308   0.95041   1.000
    O854    O    0.30881   0.87485   0.97526   1.000
    N855    N    0.14186   0.65797   0.00343   1.000
    O856    O    0.11020   0.70490   0.05448   1.000
    O857    O    0.09071   0.66541   0.03113   1.000
    O858    O    0.16140   0.60692   0.95041   1.000
    O859    O    0.19119   0.62515   0.97526   1.000
    N860    N    0.60814   0.40797   0.25343   1.000
    O861    O    0.63980   0.45490   0.30448   1.000
    O862    O    0.65929   0.41541   0.28113   1.000
    O863    O    0.58861   0.35692   0.20041   1.000
    O864    O    0.55881   0.37515   0.22526   1.000
    N865    N    0.39186   0.59203   0.25343   1.000
    O866    O    0.36020   0.54510   0.30448   1.000
    O867    O    0.34071   0.58459   0.28113   1.000
    O868    O    0.41140   0.64308   0.20041   1.000
    O869    O    0.44119   0.62485   0.22526   1.000
    N870    N    0.85814   0.84203   0.50343   1.000
    O871    O    0.88980   0.79510   0.55448   1.000
    O872    O    0.83860   0.89308   0.45041   1.000
    O873    O    0.80881   0.87485   0.47526   1.000
    O874    O    0.90929   0.83459   0.53113   1.000
    N875    N    0.64186   0.65797   0.50343   1.000
    O876    O    0.61020   0.70490   0.55448   1.000
    O877    O    0.66140   0.60692   0.45041   1.000
    O878    O    0.69119   0.62515   0.47526   1.000
    O879    O    0.59071   0.66541   0.53113   1.000
    N880    N    0.10814   0.90797   0.25343   1.000
    O881    O    0.13980   0.95490   0.30448   1.000
    O882    O    0.08861   0.85692   0.20041   1.000
    O883    O    0.05881   0.87515   0.22526   1.000
    O884    O    0.15929   0.91541   0.28113   1.000
    N885    N    0.89186   0.09203   0.25343   1.000
    O886    O    0.86020   0.04510   0.30448   1.000
    O887    O    0.91140   0.14308   0.20041   1.000
    O888    O    0.94119   0.12485   0.22526   1.000
    O889    O    0.84071   0.08459   0.28113   1.000
    N890    N    0.35814   0.34203   0.50343   1.000
    O891    O    0.38980   0.29510   0.55448   1.000
    O892    O    0.33861   0.39308   0.45041   1.000
    O893    O    0.30881   0.37485   0.47526   1.000
    O894    O    0.40929   0.33459   0.53113   1.000
    N895    N    0.55880   0.58970   0.59440   1.000
    O896    O    0.54033   0.61205   0.58632   1.000
    N897    N    0.44120   0.41030   0.59440   1.000
    O898    O    0.45967   0.38795   0.58632   1.000
    N899    N    0.80880   0.66030   0.84440   1.000
    O900    O    0.79033   0.63795   0.83632   1.000
    N901    N    0.69120   0.83970   0.84440   1.000
    O902    O    0.70967   0.86205   0.83632   1.000
    N903    N    0.10621   0.91368   0.76298   1.000
    O904    O    0.13847   0.96426   0.81048   1.000
    O905    O    0.15786   0.93071   0.77979   1.000
    O906    O    0.08756   0.86137   0.71168   1.000
    O907    O    0.05761   0.87301   0.73947   1.000
    N908    N    0.14379   0.16368   0.01298   1.000
    O909    O    0.11153   0.21427   0.06048   1.000
    O910    O    0.09214   0.18071   0.02979   1.000
    O911    O    0.16244   0.11137   0.96168   1.000
    O912    O    0.19239   0.12301   0.98947   1.000
    N913    N    0.35621   0.33632   0.01298   1.000
    O914    O    0.38847   0.28573   0.06048   1.000
    O915    O    0.40786   0.31929   0.02979   1.000
    O916    O    0.33756   0.38864   0.96168   1.000
    O917    O    0.30761   0.37699   0.98947   1.000
    N918    N    0.39379   0.08633   0.26298   1.000
    O919    O    0.36153   0.03574   0.31048   1.000
    O920    O    0.34214   0.06929   0.27979   1.000
    O921    O    0.41244   0.13864   0.21168   1.000
    O922    O    0.44239   0.12699   0.23947   1.000
    N923    N    0.60621   0.91368   0.26298   1.000
    O924    O    0.63847   0.96426   0.31048   1.000
    O925    O    0.65786   0.93071   0.27979   1.000
    O926    O    0.58756   0.86137   0.21168   1.000
    O927    O    0.55761   0.87301   0.23947   1.000
    N928    N    0.64379   0.16368   0.51298   1.000
    O929    O    0.61153   0.21427   0.56048   1.000
    O930    O    0.59214   0.18071   0.52979   1.000
    O931    O    0.66244   0.11137   0.46168   1.000
    O932    O    0.69239   0.12301   0.48947   1.000
    N933    N    0.85621   0.33632   0.51298   1.000
    O934    O    0.88847   0.28573   0.56048   1.000
    O935    O    0.90786   0.31929   0.52979   1.000
    O936    O    0.83756   0.38863   0.46168   1.000
    O937    O    0.80761   0.37699   0.48947   1.000
    N938    N    0.89379   0.58633   0.26298   1.000
    O939    O    0.86153   0.53574   0.31048   1.000
    O940    O    0.84214   0.56929   0.27979   1.000
    O941    O    0.91244   0.63864   0.21168   1.000
    O942    O    0.94239   0.62699   0.23947   1.000
    N943    N    0.10621   0.41367   0.26298   1.000
    O944    O    0.13847   0.46426   0.31048   1.000
    O945    O    0.15786   0.43071   0.27979   1.000
    O946    O    0.08756   0.36136   0.21168   1.000
    O947    O    0.05761   0.37301   0.23947   1.000
    N948    N    0.14379   0.66368   0.51298   1.000
    O949    O    0.11153   0.71427   0.56048   1.000
    O950    O    0.09214   0.68071   0.52979   1.000
    O951    O    0.16244   0.61136   0.46168   1.000
    O952    O    0.19239   0.62301   0.48947   1.000
    N953    N    0.35621   0.83633   0.51298   1.000
    O954    O    0.38847   0.78573   0.56048   1.000
    O955    O    0.40786   0.81929   0.52979   1.000
    O956    O    0.33756   0.88864   0.46168   1.000
    O957    O    0.30761   0.87699   0.48947   1.000
    N958    N    0.39379   0.58633   0.76298   1.000
    O959    O    0.36153   0.53574   0.81048   1.000
    O960    O    0.34214   0.56929   0.77979   1.000
    O961    O    0.41244   0.63864   0.71168   1.000
    O962    O    0.44239   0.62699   0.73947   1.000
    N963    N    0.60621   0.41368   0.76298   1.000
    O964    O    0.63847   0.46426   0.81048   1.000
    O965    O    0.65786   0.43071   0.77979   1.000
    O966    O    0.58756   0.36137   0.71168   1.000
    O967    O    0.55761   0.37301   0.73947   1.000
    N968    N    0.64379   0.66368   0.01298   1.000
    O969    O    0.61153   0.71427   0.06048   1.000
    O970    O    0.59214   0.68071   0.02979   1.000
    O971    O    0.66244   0.61136   0.96168   1.000
    O972    O    0.69239   0.62301   0.98947   1.000
    N973    N    0.85621   0.83633   0.01298   1.000
    O974    O    0.88847   0.78573   0.06048   1.000
    O975    O    0.90786   0.81929   0.02979   1.000
    O976    O    0.83756   0.88863   0.96168   1.000
    O977    O    0.80761   0.87699   0.98947   1.000
    N978    N    0.10811   0.92521   0.51406   1.000
    O979    O    0.15933   0.93471   0.49036   1.000
    O980    O    0.13985   0.96677   0.45857   1.000
    O981    O    0.08878   0.87026   0.56376   1.000
    O982    O    0.05887   0.88968   0.54025   1.000
    N983    N    0.14189   0.17521   0.76406   1.000
    O984    O    0.09067   0.18471   0.74036   1.000
    O985    O    0.11015   0.21677   0.70857   1.000
    O986    O    0.16122   0.12026   0.81376   1.000
    O987    O    0.19113   0.13968   0.79025   1.000
    N988    N    0.35811   0.32479   0.76406   1.000
    O989    O    0.40933   0.31529   0.74036   1.000
    O990    O    0.38985   0.28323   0.70857   1.000
    O991    O    0.33878   0.37974   0.81376   1.000
    O992    O    0.30887   0.36032   0.79025   1.000
    N993    N    0.39189   0.07479   0.01406   1.000
    O994    O    0.34067   0.06529   0.99036   1.000
    O995    O    0.36015   0.03323   0.95857   1.000
    O996    O    0.41122   0.12974   0.06376   1.000
    O997    O    0.44113   0.11032   0.04025   1.000
    N998    N    0.60811   0.92521   0.01406   1.000
    O999    O    0.65933   0.93471   0.99036   1.000
    O1000   O    0.63985   0.96677   0.95857   1.000
    O1001   O    0.58878   0.87026   0.06376   1.000
    O1002   O    0.55887   0.88968   0.04025   1.000
    N1003   N    0.64189   0.17521   0.26406   1.000
    O1004   O    0.59067   0.18471   0.24036   1.000
    O1005   O    0.61015   0.21677   0.20857   1.000
    O1006   O    0.66122   0.12026   0.31376   1.000
    O1007   O    0.69113   0.13968   0.29025   1.000
    N1008   N    0.05880   0.08970   0.59440   1.000
    O1009   O    0.04033   0.11205   0.58632   1.000
    N1010   N    0.05063   0.07255   0.69762   1.000
    O1011   O    0.03626   0.11230   0.70114   1.000
    N1012   N    0.99517   0.42430   0.65143   1.000
    O1013   O    0.98759   0.39157   0.66496   1.000
    N1014   N    0.14186   0.15797   0.50343   1.000
    O1015   O    0.11020   0.20490   0.55448   1.000
    O1016   O    0.16140   0.10692   0.45041   1.000
    O1017   O    0.19119   0.12515   0.47526   1.000
    O1018   O    0.09071   0.16541   0.53113   1.000
    N1019   N    0.60814   0.90797   0.75343   1.000
    O1020   O    0.63980   0.95490   0.80448   1.000
    O1021   O    0.58861   0.85692   0.70041   1.000
    O1022   O    0.55881   0.87515   0.72526   1.000
    O1023   O    0.65929   0.91541   0.78113   1.000
    N1024   N    0.39186   0.09203   0.75343   1.000
    O1025   O    0.36020   0.04510   0.80448   1.000
    O1026   O    0.41139   0.14308   0.70041   1.000
    O1027   O    0.44119   0.12485   0.72526   1.000
    O1028   O    0.34071   0.08459   0.78113   1.000
    N1029   N    0.85814   0.34203   0.00343   1.000
    O1030   O    0.88980   0.29510   0.05448   1.000
    O1031   O    0.83860   0.39308   0.95041   1.000
    O1032   O    0.80881   0.37485   0.97526   1.000
    O1033   O    0.90929   0.33459   0.03113   1.000
    N1034   N    0.64186   0.15797   0.00343   1.000
    O1035   O    0.61020   0.20490   0.05448   1.000
    O1036   O    0.66140   0.10692   0.95041   1.000
    O1037   O    0.69119   0.12515   0.97526   1.000
    O1038   O    0.59071   0.16541   0.03113   1.000
    N1039   N    0.85811   0.32479   0.26406   1.000
    O1040   O    0.90933   0.31529   0.24036   1.000
    O1041   O    0.88985   0.28323   0.20857   1.000
    O1042   O    0.83878   0.37974   0.31376   1.000
    O1043   O    0.80887   0.36032   0.29025   1.000
    N1044   N    0.89189   0.57479   0.01406   1.000
    O1045   O    0.84067   0.56529   0.99036   1.000
    O1046   O    0.86015   0.53323   0.95857   1.000
    O1047   O    0.91122   0.62974   0.06376   1.000
    O1048   O    0.94113   0.61032   0.04025   1.000
    N1049   N    0.10811   0.42521   0.01406   1.000
    O1050   O    0.15933   0.43471   0.99036   1.000
    O1051   O    0.13985   0.46677   0.95857   1.000
    O1052   O    0.08878   0.37026   0.06376   1.000
    O1053   O    0.05887   0.38968   0.04025   1.000
    N1054   N    0.14189   0.67521   0.26406   1.000
    O1055   O    0.09067   0.68471   0.24036   1.000
    O1056   O    0.11015   0.71677   0.20857   1.000
    O1057   O    0.16122   0.62026   0.31376   1.000
    O1058   O    0.19113   0.63968   0.29025   1.000
    N1059   N    0.35811   0.82479   0.26406   1.000
    O1060   O    0.40933   0.81529   0.24036   1.000
    O1061   O    0.38985   0.78323   0.20857   1.000
    O1062   O    0.33878   0.87974   0.31376   1.000
    O1063   O    0.30887   0.86032   0.29025   1.000
    N1064   N    0.39189   0.57479   0.51406   1.000
    O1065   O    0.34067   0.56529   0.49036   1.000
    O1066   O    0.36015   0.53323   0.45857   1.000
    O1067   O    0.41122   0.62974   0.56376   1.000
    O1068   O    0.44113   0.61032   0.54025   1.000
    N1069   N    0.60811   0.42521   0.51406   1.000
    O1070   O    0.65933   0.43471   0.49036   1.000
    O1071   O    0.63985   0.46677   0.45857   1.000
    O1072   O    0.58878   0.37026   0.56376   1.000
    O1073   O    0.55887   0.38968   0.54025   1.000
    N1074   N    0.64189   0.67521   0.76406   1.000
    O1075   O    0.59067   0.68471   0.74036   1.000
    O1076   O    0.61015   0.71677   0.70857   1.000
    O1077   O    0.66122   0.62026   0.81376   1.000
    O1078   O    0.69113   0.63968   0.79025   1.000
    N1079   N    0.85811   0.82479   0.76406   1.000
    O1080   O    0.90933   0.81529   0.74036   1.000
    O1081   O    0.88985   0.78323   0.70857   1.000
    O1082   O    0.83878   0.87974   0.81376   1.000
    O1083   O    0.80887   0.86032   0.79025   1.000
    N1084   N    0.89341   0.60292   0.48941   1.000
    O1085   O    0.86122   0.54718   0.44679   1.000
    O1086   O    0.84195   0.58876   0.46760   1.000
    O1087   O    0.91242   0.65180   0.54390   1.000
    O1088   O    0.94223   0.64143   0.51528   1.000
    N1089   N    0.89341   0.10293   0.98941   1.000
    O1090   O    0.86122   0.04718   0.94679   1.000
    O1091   O    0.84195   0.08876   0.96760   1.000
    O1092   O    0.91242   0.15180   0.04390   1.000
    O1093   O    0.94223   0.14143   0.01528   1.000
    N1094   N    0.35659   0.35292   0.23941   1.000
    O1095   O    0.38878   0.29718   0.19679   1.000
    O1096   O    0.40805   0.33876   0.21760   1.000
    O1097   O    0.33758   0.40180   0.29390   1.000
    O1098   O    0.30778   0.39143   0.26528   1.000
    N1099   N    0.14341   0.14707   0.23941   1.000
    O1100   O    0.11122   0.20282   0.19679   1.000
    O1101   O    0.09195   0.16124   0.21760   1.000
    O1102   O    0.16242   0.09820   0.29390   1.000
    O1103   O    0.19223   0.10857   0.26528   1.000
    N1104   N    0.60659   0.89708   0.48941   1.000
    O1105   O    0.63878   0.95281   0.44679   1.000
    O1106   O    0.65805   0.91124   0.46760   1.000
    O1107   O    0.58758   0.84820   0.54390   1.000
    O1108   O    0.55778   0.85857   0.51528   1.000
    N1109   N    0.39341   0.10293   0.48941   1.000
    O1110   O    0.36123   0.04719   0.44679   1.000
    O1111   O    0.34195   0.08876   0.46760   1.000
    O1112   O    0.41242   0.15180   0.54390   1.000
    O1113   O    0.44222   0.14143   0.51528   1.000
    N1114   N    0.85659   0.35293   0.73941   1.000
    O1115   O    0.88878   0.29719   0.69679   1.000
    O1116   O    0.90805   0.33876   0.71760   1.000
    O1117   O    0.83758   0.40180   0.79390   1.000
    O1118   O    0.80778   0.39143   0.76528   1.000
    N1119   N    0.64341   0.14707   0.73941   1.000
    O1120   O    0.61123   0.20281   0.69679   1.000
    O1121   O    0.59195   0.16124   0.71760   1.000
    O1122   O    0.66242   0.09820   0.79390   1.000
    O1123   O    0.69223   0.10857   0.76528   1.000
    N1124   N    0.99910   0.77901   0.37957   1.000
    O1125   O    0.99391   0.79677   0.30120   1.000
    O1126   O    0.99431   0.80095   0.45765   1.000
    O1127   O    0.00476   0.74416   0.30874   1.000
    O1128   O    0.00472   0.74775   0.45068   1.000
    N1129   N    0.25090   0.02901   0.62957   1.000
    O1130   O    0.25609   0.04677   0.55120   1.000
    O1131   O    0.25569   0.05095   0.70765   1.000
    O1132   O    0.24524   0.99416   0.55874   1.000
    O1133   O    0.24528   0.99775   0.70068   1.000
    N1134   N    0.24910   0.47099   0.62957   1.000
    O1135   O    0.24391   0.45323   0.55120   1.000
    O1136   O    0.24431   0.44905   0.70765   1.000
    O1137   O    0.25476   0.50584   0.55874   1.000
    O1138   O    0.25472   0.50225   0.70068   1.000
    N1139   N    0.50090   0.22099   0.87957   1.000
    O1140   O    0.50609   0.20323   0.80120   1.000
    O1141   O    0.50569   0.19905   0.95765   1.000
    O1142   O    0.49524   0.25584   0.80874   1.000
    O1143   O    0.49528   0.25225   0.95068   1.000
    N1144   N    0.49910   0.77901   0.87957   1.000
    O1145   O    0.49391   0.79677   0.80120   1.000
    O1146   O    0.49431   0.80095   0.95765   1.000
    O1147   O    0.50476   0.74416   0.80874   1.000
    O1148   O    0.50472   0.74775   0.95068   1.000
    N1149   N    0.75090   0.02901   0.12957   1.000
    O1150   O    0.75609   0.04677   0.05120   1.000
    O1151   O    0.75569   0.05095   0.20765   1.000
    O1152   O    0.74524   0.99416   0.05874   1.000
    O1153   O    0.74528   0.99775   0.20068   1.000
    N1154   N    0.74910   0.47099   0.12957   1.000
    O1155   O    0.74391   0.45323   0.05120   1.000
    O1156   O    0.74431   0.44905   0.20765   1.000
    O1157   O    0.75476   0.50584   0.05874   1.000
    O1158   O    0.75472   0.50225   0.20068   1.000
    N1159   N    0.00090   0.72099   0.87957   1.000
    O1160   O    0.00609   0.70323   0.80120   1.000
    O1161   O    0.00569   0.69905   0.95765   1.000
    O1162   O    0.99524   0.75584   0.80874   1.000
    O1163   O    0.99528   0.75225   0.95068   1.000
    N1164   N    0.99910   0.27901   0.87957   1.000
    O1165   O    0.99391   0.29677   0.80120   1.000
    O1166   O    0.99431   0.30095   0.95765   1.000
    O1167   O    0.00476   0.24416   0.80874   1.000
    O1168   O    0.00472   0.24775   0.95068   1.000
    N1169   N    0.25090   0.52901   0.12957   1.000
    O1170   O    0.25609   0.54677   0.05120   1.000
    O1171   O    0.25569   0.55095   0.20765   1.000
    O1172   O    0.24524   0.49416   0.05874   1.000
    O1173   O    0.24528   0.49775   0.20068   1.000
    N1174   N    0.24910   0.97099   0.12957   1.000
    O1175   O    0.24391   0.95323   0.05120   1.000
    O1176   O    0.24431   0.94905   0.20765   1.000
    O1177   O    0.25476   0.00584   0.05874   1.000
    O1178   O    0.25472   0.00225   0.20068   1.000
    N1179   N    0.50090   0.72099   0.37957   1.000
    O1180   O    0.50609   0.70323   0.30120   1.000
    O1181   O    0.50569   0.69905   0.45765   1.000
    O1182   O    0.49524   0.75584   0.30874   1.000
    O1183   O    0.49528   0.75225   0.45068   1.000
    N1184   N    0.49910   0.27901   0.37957   1.000
    O1185   O    0.49391   0.29677   0.30120   1.000
    O1186   O    0.49431   0.30095   0.45765   1.000
    O1187   O    0.50476   0.24416   0.30874   1.000
    O1188   O    0.50472   0.24775   0.45068   1.000
    N1189   N    0.75090   0.52901   0.62957   1.000
    O1190   O    0.75609   0.54677   0.55120   1.000
    O1191   O    0.75569   0.55095   0.70765   1.000
    O1192   O    0.74524   0.49416   0.55874   1.000
    O1193   O    0.74528   0.49775   0.70068   1.000
    N1194   N    0.74910   0.97099   0.62957   1.000
    O1195   O    0.74391   0.95323   0.55120   1.000
    O1196   O    0.74431   0.94905   0.70765   1.000
    O1197   O    0.75476   0.00584   0.55874   1.000
    O1198   O    0.75472   0.00225   0.70068   1.000
    N1199   N    0.04763   0.58760   0.54850   1.000
    O1200   O    0.03382   0.62357   0.55180   1.000
    N1201   N    0.20237   0.83760   0.79850   1.000
    O1202   O    0.21618   0.87357   0.80180   1.000
    N1203   N    0.29763   0.66240   0.79850   1.000
    O1204   O    0.28382   0.62643   0.80180   1.000
    N1205   N    0.45237   0.41240   0.04850   1.000
    O1206   O    0.46618   0.37643   0.05180   1.000
    N1207   N    0.54763   0.58760   0.04850   1.000
    O1208   O    0.53382   0.62357   0.05180   1.000
    N1209   N    0.70237   0.83760   0.29850   1.000
    O1210   O    0.71618   0.87357   0.30180   1.000
    N1211   N    0.79763   0.66240   0.29850   1.000
    O1212   O    0.78382   0.62643   0.30180   1.000
    N1213   N    0.95237   0.91240   0.04850   1.000
    O1214   O    0.96618   0.87643   0.05180   1.000
    N1215   N    0.04763   0.08760   0.04850   1.000
    O1216   O    0.03382   0.12357   0.05180   1.000
    N1217   N    0.20237   0.33760   0.29850   1.000
    O1218   O    0.21618   0.37357   0.30180   1.000
    N1219   N    0.29763   0.16240   0.29850   1.000
    O1220   O    0.28382   0.12643   0.30180   1.000
    N1221   N    0.45237   0.91240   0.54850   1.000
    O1222   O    0.46618   0.87643   0.55180   1.000
    N1223   N    0.54763   0.08760   0.54850   1.000
    O1224   O    0.53382   0.12357   0.55180   1.000
    N1225   N    0.70237   0.33760   0.79850   1.000
    O1226   O    0.71618   0.37357   0.80180   1.000
    N1227   N    0.79763   0.16240   0.79850   1.000
    O1228   O    0.78382   0.12643   0.80180   1.000
    N1229   N    0.94120   0.91030   0.59440   1.000
    O1230   O    0.95967   0.88795   0.58632   1.000
    N1231   N    0.30880   0.16030   0.84440   1.000
    O1232   O    0.29033   0.13795   0.83632   1.000
    N1233   N    0.19120   0.33970   0.84440   1.000
    O1234   O    0.20967   0.36205   0.83632   1.000
    N1235   N    0.55880   0.08970   0.09440   1.000
    O1236   O    0.54033   0.11205   0.08632   1.000
    N1237   N    0.44120   0.91030   0.09440   1.000
    O1238   O    0.45967   0.88795   0.08632   1.000
    N1239   N    0.80880   0.16030   0.34440   1.000
    O1240   O    0.79033   0.13795   0.33632   1.000
    N1241   N    0.69120   0.33970   0.34440   1.000
    O1242   O    0.70967   0.36205   0.33632   1.000
    N1243   N    0.05880   0.58970   0.09440   1.000
    O1244   O    0.04033   0.61205   0.08632   1.000
    N1245   N    0.94120   0.41030   0.09440   1.000
    O1246   O    0.95967   0.38795   0.08632   1.000
    N1247   N    0.30880   0.66030   0.34440   1.000
    O1248   O    0.29033   0.63795   0.33632   1.000
    N1249   N    0.19120   0.83970   0.34440   1.000
    O1250   O    0.20967   0.86205   0.33632   1.000
    N1251   N    0.00483   0.57570   0.65143   1.000
    O1252   O    0.01241   0.60843   0.66496   1.000
    N1253   N    0.24517   0.82570   0.90143   1.000
    O1254   O    0.23759   0.85843   0.91496   1.000
    N1255   N    0.25483   0.67430   0.90143   1.000
    O1256   O    0.26241   0.64157   0.91496   1.000
    N1257   N    0.49517   0.42430   0.15143   1.000
    O1258   O    0.48759   0.39157   0.16496   1.000
    N1259   N    0.50483   0.57570   0.15143   1.000
    O1260   O    0.51241   0.60843   0.16496   1.000
    N1261   N    0.74517   0.82570   0.40143   1.000
    O1262   O    0.73759   0.85843   0.41496   1.000
    N1263   N    0.75483   0.67430   0.40143   1.000
    O1264   O    0.76241   0.64157   0.41496   1.000
    N1265   N    0.99517   0.92430   0.15143   1.000
    O1266   O    0.98759   0.89157   0.16496   1.000
    N1267   N    0.00483   0.07570   0.15143   1.000
    O1268   O    0.01241   0.10843   0.16496   1.000
    N1269   N    0.24517   0.32570   0.40143   1.000
    O1270   O    0.23759   0.35843   0.41496   1.000
    N1271   N    0.25483   0.17430   0.40143   1.000
    O1272   O    0.26241   0.14157   0.41496   1.000
    N1273   N    0.49517   0.92430   0.65143   1.000
    O1274   O    0.48759   0.89157   0.66496   1.000
    N1275   N    0.50483   0.07570   0.65143   1.000
    O1276   O    0.51241   0.10843   0.66496   1.000
    N1277   N    0.74517   0.32570   0.90143   1.000
    O1278   O    0.73759   0.35843   0.91496   1.000
    N1279   N    0.75483   0.17430   0.90143   1.000
    O1280   O    0.76241   0.14157   0.91496   1.000
    N1281   N    0.94937   0.92745   0.69762   1.000
    O1282   O    0.96374   0.88770   0.70114   1.000
    N1283   N    0.30063   0.17745   0.94762   1.000
    O1284   O    0.28626   0.13770   0.95114   1.000
    N1285   N    0.19937   0.32255   0.94762   1.000
    O1286   O    0.21374   0.36230   0.95114   1.000
    N1287   N    0.55063   0.07255   0.19762   1.000
    O1288   O    0.53626   0.11230   0.20114   1.000
    N1289   N    0.44937   0.92745   0.19762   1.000
    O1290   O    0.46374   0.88770   0.20114   1.000
    N1291   N    0.80063   0.17745   0.44762   1.000
    O1292   O    0.78626   0.13770   0.45114   1.000
    N1293   N    0.69937   0.32255   0.44762   1.000
    O1294   O    0.71374   0.36230   0.45114   1.000
    N1295   N    0.05063   0.57255   0.19762   1.000
    O1296   O    0.03626   0.61230   0.20114   1.000
    N1297   N    0.94937   0.42745   0.19762   1.000
    O1298   O    0.96374   0.38770   0.20114   1.000
    N1299   N    0.30063   0.67745   0.44762   1.000
    O1300   O    0.28626   0.63770   0.45114   1.000
    N1301   N    0.19937   0.82255   0.44762   1.000
    O1302   O    0.21374   0.86230   0.45114   1.000
    N1303   N    0.55063   0.57255   0.69762   1.000
    O1304   O    0.53626   0.61230   0.70114   1.000
    N1305   N    0.44937   0.42745   0.69762   1.000
    O1306   O    0.46374   0.38770   0.70114   1.000
    N1307   N    0.80063   0.67745   0.94762   1.000
    O1308   O    0.78626   0.63770   0.95114   1.000
    N1309   N    0.69937   0.82255   0.94762   1.000
    O1310   O    0.71374   0.86230   0.95114   1.000
    N1311   N    0.08776   0.80238   0.39826   1.000
    N1312   N    0.16224   0.05238   0.64826   1.000
    N1313   N    0.33776   0.44762   0.64826   1.000
    N1314   N    0.41224   0.19762   0.89826   1.000
    N1315   N    0.58776   0.80238   0.89826   1.000
    N1316   N    0.66224   0.05238   0.14826   1.000
    N1317   N    0.83776   0.44762   0.14826   1.000
    N1318   N    0.91224   0.69762   0.89826   1.000
    N1319   N    0.08776   0.30238   0.89826   1.000
    N1320   N    0.16224   0.55238   0.14826   1.000
    N1321   N    0.33776   0.94762   0.14826   1.000
    N1322   N    0.41224   0.69762   0.39826   1.000
    N1323   N    0.58776   0.30238   0.39826   1.000
    N1324   N    0.66224   0.55238   0.64826   1.000
    N1325   N    0.83776   0.94762   0.64826   1.000
    N1326   N    0.33326   0.98446   0.60254   1.000
    N1327   N    0.16674   0.51554   0.60254   1.000
    N1328   N    0.83326   0.48446   0.60254   1.000
    N1329   N    0.66674   0.01554   0.60254   1.000
    N1330   N    0.07333   0.02520   0.37783   1.000
    N1331   N    0.17667   0.27520   0.62783   1.000
    N1332   N    0.32333   0.22480   0.62783   1.000
    N1333   N    0.42667   0.97480   0.87783   1.000
    N1334   N    0.57333   0.02520   0.87783   1.000
    N1335   N    0.67667   0.27520   0.12783   1.000
    N1336   N    0.82333   0.22480   0.12783   1.000
    N1337   N    0.92667   0.47480   0.87783   1.000
    N1338   N    0.07333   0.52520   0.87783   1.000
    N1339   N    0.17667   0.77520   0.12783   1.000
    N1340   N    0.32333   0.72480   0.12783   1.000
    N1341   N    0.42667   0.47480   0.37783   1.000
    N1342   N    0.57333   0.52520   0.37783   1.000
    N1343   N    0.67667   0.77520   0.62783   1.000
    N1344   N    0.82333   0.72480   0.62783   1.000
    N1345   N    0.08326   0.76554   0.85254   1.000
    N1346   N    0.16674   0.01554   0.10254   1.000
    N1347   N    0.33326   0.48446   0.10254   1.000
    N1348   N    0.41674   0.23446   0.35254   1.000
    N1349   N    0.58326   0.76554   0.35254   1.000
    N1350   N    0.91674   0.73446   0.35254   1.000
    N1351   N    0.08326   0.26554   0.35254   1.000
    N1352   N    0.41674   0.73446   0.85254   1.000
    N1353   N    0.58326   0.26554   0.85254   1.000
    N1354   N    0.66674   0.51554   0.10254   1.000
    N1355   N    0.83326   0.98446   0.10254   1.000
    N1356   N    0.97825   0.91835   0.46390   1.000
    N1357   N    0.27175   0.16835   0.71390   1.000
    N1358   N    0.22825   0.33165   0.71390   1.000
    N1359   N    0.52175   0.08165   0.96390   1.000
    N1360   N    0.47825   0.91835   0.96390   1.000
    N1361   N    0.77175   0.16835   0.21390   1.000
    N1362   N    0.72825   0.33165   0.21390   1.000
    N1363   N    0.02175   0.58165   0.96390   1.000
    N1364   N    0.97825   0.41835   0.96390   1.000
    N1365   N    0.27175   0.66835   0.21390   1.000
    N1366   N    0.22825   0.83165   0.21390   1.000
    N1367   N    0.52175   0.58165   0.46390   1.000
    N1368   N    0.47825   0.41835   0.46390   1.000
    N1369   N    0.77175   0.66835   0.71390   1.000
    N1370   N    0.72825   0.83165   0.71390   1.000
    N1371   N    0.25000   0.75000   0.02851   1.000
    N1372   N    0.50000   0.50000   0.27851   1.000
    N1373   N    0.75000   0.75000   0.52851   1.000
    N1374   N    0.00000   0.00000   0.27851   1.000
    N1375   N    0.25000   0.25000   0.52851   1.000
    N1376   N    0.50000   0.00000   0.77851   1.000
    N1377   N    0.75000   0.25000   0.02851   1.000
    N1378   N    0.00040   0.60750   0.40850   1.000
    N1379   N    0.24960   0.85750   0.65850   1.000
    N1380   N    0.25040   0.64250   0.65850   1.000
    N1381   N    0.49960   0.39250   0.90850   1.000
    N1382   N    0.50040   0.60750   0.90850   1.000
    N1383   N    0.74960   0.85750   0.15850   1.000
    N1384   N    0.75040   0.64250   0.15850   1.000
    N1385   N    0.99960   0.89250   0.90850   1.000
    N1386   N    0.00040   0.10750   0.90850   1.000
    N1387   N    0.24960   0.35750   0.15850   1.000
    N1388   N    0.25040   0.14250   0.15850   1.000
    N1389   N    0.49960   0.89250   0.40850   1.000
    N1390   N    0.50040   0.10750   0.40850   1.000
    N1391   N    0.74960   0.35750   0.65850   1.000
    N1392   N    0.75040   0.14250   0.65850   1.000
    N1393   N    0.06250   0.60350   0.39450   1.000
    N1394   N    0.18750   0.85350   0.64450   1.000
    N1395   N    0.31250   0.64650   0.64450   1.000
    N1396   N    0.43750   0.39650   0.89450   1.000
    N1397   N    0.56250   0.60350   0.89450   1.000
    N1398   N    0.68750   0.85350   0.14450   1.000
    N1399   N    0.81250   0.64650   0.14450   1.000
    N1400   N    0.93750   0.89650   0.89450   1.000
    N1401   N    0.06250   0.10350   0.89450   1.000
    N1402   N    0.18750   0.35350   0.14450   1.000
    N1403   N    0.31250   0.14650   0.14450   1.000
    N1404   N    0.43750   0.89650   0.39450   1.000
    N1405   N    0.56250   0.10350   0.39450   1.000
    N1406   N    0.68750   0.35350   0.64450   1.000
    N1407   N    0.81250   0.14650   0.64450   1.000
loop_
    _geom_bond_atom_site_label_1
    _geom_bond_atom_site_label_2
    _geom_bond_distance
    _geom_bond_site_symmetry_2
    _ccdc_geom_bond_type
    Zr280  O328      0.50080      .   S
    Zr265  O328      0.50080      .   S
    Zr284  O329      0.50080      .   S
    Zr269  O329      0.50080      .   S
    Zr279  O330      0.50080      .   S
    Zr264  O330      0.50080      .   S
    Zr283  O331      0.50080      .   S
    Zr268  O331      0.50080      .   S
    Zr44   O332      1.11527      .   S
    Zr269  O332      1.11527      .   S
    Zr44   O333      1.02309  1_455   S
    Zr224  O333      1.02309      .   S
    Zr43   O334      1.11527      .   S
    Zr268  O334      1.11527      .   S
    Zr43   O335      1.02309  1_655   S
    Zr223  O335      1.02309      .   S
    Zr40   O336      1.11527      .   S
    Zr265  O336      1.11527      .   S
    Zr40   O337      1.02309      .   S
    Zr220  O337      1.02309      .   S
    Zr39   O338      1.11527      .   S
    Zr264  O338      1.11527      .   S
    Zr39   O339      1.02309      .   S
    Zr219  O339      1.02309      .   S
    Zr88   O340      1.11893      .   S
    Zr238  O340      1.11893      .   S
    Zr88   O341      1.03669  1_455   S
    Zr133  O341      1.03669      .   S
    Zr84   O342      1.11893      .   S
    Zr234  O342      1.11893      .   S
    Zr84   O343      1.03669      .   S
    Zr129  O343      1.03669      .   S
    Zr85   O344      1.11893      .   S
    Zr235  O344      1.11893      .   S
    Zr85   O345      1.03669      .   S
    Zr130  O345      1.03669      .   S
    Zr89   O346      1.11893      .   S
    Zr239  O346      1.11893      .   S
    Zr89   O347      1.03669  1_655   S
    Zr134  O347      1.03669      .   S
    Zr224  O348      1.01682      .   S
    Zr104  O348      1.01682      .   S
    Zr223  O349      1.01682      .   S
    Zr103  O349      1.01682      .   S
    Zr220  O350      1.01682      .   S
    Zr100  O350      1.01682      .   S
    Zr219  O351      1.01682      .   S
    Zr99   O351      1.01682      .   S
    Zr163  O352      0.49995      .   S
    Zr148  O352      0.49995      .   S
    Zr160  O353      0.49995      .   S
    Zr145  O353      0.49995      .   S
    Zr159  O354      0.49995      .   S
    Zr144  O354      0.49995      .   S
    Zr164  O355      0.49995      .   S
    Zr149  O355      0.49995      .   S
    Zr145  O356      1.11420      .   S
    Zr70   O356      1.11420      .   S
    Zr148  O357      1.11420      .   S
    Zr73   O357      1.11420  1_655   S
    Zr144  O358      1.11420      .   S
    Zr69   O358      1.11420      .   S
    Zr149  O359      1.11420      .   S
    Zr74   O359      1.11420  1_455   S
    Zr115  O360      1.03564      .   S
    Zr55   O360      1.03564      .   S
    Zr115  O361      1.03380      .   S
    Zr70   O361      1.03380      .   S
    Zr114  O362      1.03564      .   S
    Zr54   O362      1.03564      .   S
    Zr114  O363      1.03380      .   S
    Zr69   O363      1.03380      .   S
    Zr118  O364      1.03564      .   S
    Zr58   O364      1.03564      .   S
    Zr118  O365      1.03380      .   S
    Zr73   O365      1.03380      .   S
    Zr119  O366      1.03564      .   S
    Zr59   O366      1.03564      .   S
    Zr119  O367      1.03380      .   S
    Zr74   O367      1.03380      .   S
    Zr104  O368      1.01980      .   S
    Zr209  O368      1.01980      .   S
    Zr103  O369      1.01980      .   S
    Zr208  O369      1.01980      .   S
    Zr100  O370      1.01980      .   S
    Zr205  O370      1.01980      .   S
    Zr99   O371      1.01980      .   S
    Zr204  O371      1.01980      .   S
    Zr59   O372      1.03548      .   S
    Zr134  O372      1.03548      .   S
    Zr58   O373      1.03548      .   S
    Zr133  O373      1.03548      .   S
    Zr54   O374      1.03548      .   S
    Zr129  O374      1.03548      .   S
    Zr55   O375      1.03548      .   S
    Zr130  O375      1.03548      .   S
    Zr239  O376      0.50026      .   S
    Zr254  O376      0.50026      .   S
    Zr235  O377      0.50026      .   S
    Zr250  O377      0.50026      .   S
    Zr238  O378      0.50026      .   S
    Zr253  O378      0.50026      .   S
    Zr234  O379      0.50026      .   S
    Zr249  O379      0.50026      .   S
    Zr209  O380      1.02664      .   S
    Zr29   O380      1.02664      .   S
    Zr204  O381      1.02664      .   S
    Zr24   O381      1.02664      .   S
    Zr205  O382      1.02664      .   S
    Zr25   O382      1.02664      .   S
    Zr208  O383      1.02664      .   S
    Zr28   O383      1.02664      .   S
    Zr70   O384      1.11765      .   S
    Zr175  O384      1.11765      .   S
    Zr69   O385      1.11765      .   S
    Zr174  O385      1.11765      .   S
    Zr73   O386      1.11765      .   S
    Zr178  O386      1.11765      .   S
    Zr74   O387      1.11765      .   S
    Zr179  O387      1.11765      .   S
    Zr174  O388      0.49897      .   S
    Zr189  O388      0.49897      .   S
    Zr175  O389      0.49897      .   S
    Zr190  O389      0.49897      .   S
    Zr178  O390      0.49897      .   S
    Zr193  O390      0.49897      .   S
    Zr179  O391      0.49897      .   S
    Zr194  O391      0.49897      .   S
    Zr281  O392      0.50080      .   S
    Zr266  O392      0.50080      .   S
    Zr282  O393      0.50080      .   S
    Zr267  O393      0.50080      .   S
    Zr285  O394      0.50080      .   S
    Zr270  O394      0.50080      .   S
    Zr286  O395      0.50080      .   S
    Zr271  O395      0.50080      .   S
    Zr41   O396      1.11527      .   S
    Zr266  O396      1.11527  1_545   S
    Zr41   O397      1.02309      .   S
    Zr221  O397      1.02309      .   S
    Zr42   O398      1.11527      .   S
    Zr267  O398      1.11527      .   S
    Zr42   O399      1.02309      .   S
    Zr222  O399      1.02309      .   S
    Zr45   O400      1.11527      .   S
    Zr270  O400      1.11527      .   S
    Zr45   O401      1.02309      .   S
    Zr225  O401      1.02309      .   S
    Zr46   O402      1.11527      .   S
    Zr271  O402      1.11527  1_565   S
    Zr46   O403      1.02309      .   S
    Zr226  O403      1.02309      .   S
    Zr90   O404      1.11893      .   S
    Zr240  O404      1.11893      .   S
    Zr90   O405      1.03669      .   S
    Zr135  O405      1.03669      .   S
    Zr91   O406      1.11893      .   S
    Zr241  O406      1.11893      .   S
    Zr91   O407      1.03669      .   S
    Zr136  O407      1.03669      .   S
    Zr87   O408      1.11893      .   S
    Zr237  O408      1.11893      .   S
    Zr87   O409      1.03669      .   S
    Zr132  O409      1.03669      .   S
    Zr86   O410      1.11893      .   S
    Zr236  O410      1.11893      .   S
    Zr86   O411      1.03669      .   S
    Zr131  O411      1.03669      .   S
    Zr226  O412      1.01682      .   S
    Zr106  O412      1.01682      .   S
    Zr221  O413      1.01682      .   S
    Zr101  O413      1.01682      .   S
    Zr222  O414      1.01682      .   S
    Zr102  O414      1.01682      .   S
    Zr225  O415      1.01682      .   S
    Zr105  O415      1.01682      .   S
    Zr161  O416      0.49995      .   S
    Zr146  O416      0.49995      .   S
    Zr165  O417      0.49995      .   S
    Zr150  O417      0.49995      .   S
    Zr166  O418      0.49995      .   S
    Zr151  O418      0.49995      .   S
    Zr162  O419      0.49995      .   S
    Zr147  O419      0.49995      .   S
    Zr147  O420      1.11420      .   S
    Zr72   O420      1.11420      .   S
    Zr146  O421      1.11420      .   S
    Zr71   O421      1.11420      .   S
    Zr151  O422      1.11420      .   S
    Zr76   O422      1.11420      .   S
    Zr150  O423      1.11420      .   S
    Zr75   O423      1.11420      .   S
    Zr120  O424      1.03564      .   S
    Zr60   O424      1.03564      .   S
    Zr120  O425      1.03380      .   S
    Zr75   O425      1.03380      .   S
    Zr117  O426      1.03564      .   S
    Zr57   O426      1.03564      .   S
    Zr117  O427      1.03380      .   S
    Zr72   O427      1.03380      .   S
    Zr116  O428      1.03564      .   S
    Zr56   O428      1.03564  1_545   S
    Zr116  O429      1.03380      .   S
    Zr71   O429      1.03380      .   S
    Zr121  O430      1.03564      .   S
    Zr61   O430      1.03564  1_565   S
    Zr121  O431      1.03380      .   S
    Zr76   O431      1.03380      .   S
    Zr102  O432      1.01980      .   S
    Zr207  O432      1.01980      .   S
    Zr105  O433      1.01980      .   S
    Zr210  O433      1.01980      .   S
    Zr101  O434      1.01980      .   S
    Zr206  O434      1.01980      .   S
    Zr106  O435      1.01980      .   S
    Zr211  O435      1.01980      .   S
    Zr61   O436      1.03548      .   S
    Zr136  O436      1.03548      .   S
    Zr60   O437      1.03548      .   S
    Zr135  O437      1.03548      .   S
    Zr57   O438      1.03548      .   S
    Zr132  O438      1.03548      .   S
    Zr56   O439      1.03548      .   S
    Zr131  O439      1.03548      .   S
    Zr241  O440      0.50026      .   S
    Zr256  O440      0.50026      .   S
    Zr240  O441      0.50026      .   S
    Zr255  O441      0.50026      .   S
    Zr237  O442      0.50026      .   S
    Zr252  O442      0.50026      .   S
    Zr236  O443      0.50026      .   S
    Zr251  O443      0.50026      .   S
    Zr211  O444      1.02664  1_545   S
    Zr31   O444      1.02664      .   S
    Zr210  O445      1.02664      .   S
    Zr30   O445      1.02664      .   S
    Zr207  O446      1.02664      .   S
    Zr27   O446      1.02664      .   S
    Zr206  O447      1.02664  1_565   S
    Zr26   O447      1.02664      .   S
    Zr72   O448      1.11765      .   S
    Zr177  O448      1.11765      .   S
    Zr71   O449      1.11765      .   S
    Zr176  O449      1.11765  1_545   S
    Zr75   O450      1.11765      .   S
    Zr180  O450      1.11765      .   S
    Zr76   O451      1.11765      .   S
    Zr181  O451      1.11765  1_565   S
    Zr177  O452      0.49897      .   S
    Zr192  O452      0.49897      .   S
    Zr176  O453      0.49897      .   S
    Zr191  O453      0.49897      .   S
    Zr181  O454      0.49897      .   S
    Zr196  O454      0.49897      .   S
    Zr180  O455      0.49897      .   S
    Zr195  O455      0.49897      .   S
    Zr17   O456      0.50080      .   S
    Zr16   O456      0.50080      .   S
    Zr288  O457      0.50080      .   S
    Zr273  O457      0.50080      .   S
    Zr276  O458      0.50080      .   S
    Zr261  O458      0.50080      .   S
    Zr287  O459      0.50080      .   S
    Zr272  O459      0.50080      .   S
    Zr1    O460      1.11527      .   S
    Zr16   O460      1.11527      .   S
    Zr1    O461      1.02309  1_655   S
    Zr13   O461      1.02309      .   S
    Zr36   O462      1.11527      .   S
    Zr261  O462      1.11527      .   S
    Zr36   O463      1.02309  1_455   S
    Zr216  O463      1.02309      .   S
    Zr47   O464      1.11527      .   S
    Zr272  O464      1.11527      .   S
    Zr47   O465      1.02309      .   S
    Zr227  O465      1.02309      .   S
    Zr48   O466      1.11527      .   S
    Zr273  O466      1.11527      .   S
    Zr48   O467      1.02309      .   S
    Zr228  O467      1.02309      .   S
    Zr4    O468      1.11893      .   S
    Zr14   O468      1.11893      .   S
    Zr4    O469      1.03669  1_455   S
    Zr7    O469      1.03669      .   S
    Zr81   O470      1.11893      .   S
    Zr231  O470      1.11893      .   S
    Zr81   O471      1.03669  1_655   S
    Zr126  O471      1.03669      .   S
    Zr92   O472      1.11893      .   S
    Zr242  O472      1.11893      .   S
    Zr92   O473      1.03669      .   S
    Zr137  O473      1.03669      .   S
    Zr93   O474      1.11893      .   S
    Zr243  O474      1.11893      .   S
    Zr93   O475      1.03669      .   S
    Zr138  O475      1.03669      .   S
    Zr13   O476      1.01682      .   S
    Zr5    O476      1.01682      .   S
    Zr227  O477      1.01682      .   S
    Zr107  O477      1.01682      .   S
    Zr228  O478      1.01682      .   S
    Zr108  O478      1.01682      .   S
    Zr216  O479      1.01682      .   S
    Zr96   O479      1.01682      .   S
    Zr9    O480      0.49995      .   S
    Zr8    O480      0.49995      .   S
    Zr168  O481      0.49995      .   S
    Zr153  O481      0.49995      .   S
    Zr167  O482      0.49995      .   S
    Zr152  O482      0.49995      .   S
    Zr156  O483      0.49995      .   S
    Zr141  O483      0.49995      .   S
    Zr8    O484      1.11420      .   S
    Zr3    O484      1.11420  1_655   S
    Zr153  O485      1.11420      .   S
    Zr78   O485      1.11420      .   S
    Zr141  O486      1.11420      .   S
    Zr66   O486      1.11420  1_455   S
    Zr152  O487      1.11420      .   S
    Zr77   O487      1.11420      .   S
    Zr6    O488      1.03564      .   S
    Zr2    O488      1.03564      .   S
    Zr6    O489      1.03380      .   S
    Zr3    O489      1.03380      .   S
    Zr123  O490      1.03564      .   S
    Zr63   O490      1.03564      .   S
    Zr123  O491      1.03380      .   S
    Zr78   O491      1.03380      .   S
    Zr122  O492      1.03564      .   S
    Zr62   O492      1.03564      .   S
    Zr122  O493      1.03380      .   S
    Zr77   O493      1.03380      .   S
    Zr111  O494      1.03564      .   S
    Zr51   O494      1.03564      .   S
    Zr111  O495      1.03380      .   S
    Zr66   O495      1.03380      .   S
    Zr5    O496      1.01980      .   S
    Zr12   O496      1.01980      .   S
    Zr107  O497      1.01980      .   S
    Zr212  O497      1.01980      .   S
    Zr96   O498      1.01980      .   S
    Zr201  O498      1.01980      .   S
    Zr108  O499      1.01980      .   S
    Zr213  O499      1.01980      .   S
    Zr2    O500      1.03548      .   S
    Zr7    O500      1.03548      .   S
    Zr63   O501      1.03548      .   S
    Zr138  O501      1.03548      .   S
    Zr51   O502      1.03548      .   S
    Zr126  O502      1.03548      .   S
    Zr62   O503      1.03548      .   S
    Zr137  O503      1.03548      .   S
    Zr14   O504      0.50026      .   S
    Zr15   O504      0.50026      .   S
    Zr243  O505      0.50026      .   S
    Zr258  O505      0.50026      .   S
    Zr242  O506      0.50026      .   S
    Zr257  O506      0.50026      .   S
    Zr231  O507      0.50026      .   S
    Zr246  O507      0.50026      .   S
    Zr12   O508      1.02664      .   S
    Zr0    O508      1.02664      .   S
    Zr201  O509      1.02664      .   S
    Zr21   O509      1.02664      .   S
    Zr212  O510      1.02664      .   S
    Zr32   O510      1.02664      .   S
    Zr213  O511      1.02664      .   S
    Zr33   O511      1.02664      .   S
    Zr3    O512      1.11765      .   S
    Zr10   O512      1.11765      .   S
    Zr77   O513      1.11765      .   S
    Zr182  O513      1.11765      .   S
    Zr78   O514      1.11765      .   S
    Zr183  O514      1.11765      .   S
    Zr66   O515      1.11765      .   S
    Zr171  O515      1.11765      .   S
    Zr10   O516      0.49897      .   S
    Zr11   O516      0.49897      .   S
    Zr183  O517      0.49897      .   S
    Zr198  O517      0.49897      .   S
    Zr171  O518      0.49897      .   S
    Zr186  O518      0.49897      .   S
    Zr182  O519      0.49897      .   S
    Zr197  O519      0.49897      .   S
    Zr277  O520      0.50080      .   S
    Zr262  O520      0.50080      .   S
    Zr278  O521      0.50080      .   S
    Zr263  O521      0.50080      .   S
    Zr289  O522      0.50080      .   S
    Zr274  O522      0.50080      .   S
    Zr290  O523      0.50080      .   S
    Zr275  O523      0.50080      .   S
    Zr50   O524      1.11527      .   S
    Zr275  O524      1.11527  1_565   S
    Zr50   O525      1.02309      .   S
    Zr230  O525      1.02309      .   S
    Zr37   O526      1.11527      .   S
    Zr262  O526      1.11527  1_545   S
    Zr37   O527      1.02309      .   S
    Zr217  O527      1.02309      .   S
    Zr38   O528      1.11527      .   S
    Zr263  O528      1.11527      .   S
    Zr38   O529      1.02309      .   S
    Zr218  O529      1.02309      .   S
    Zr49   O530      1.11527      .   S
    Zr274  O530      1.11527      .   S
    Zr49   O531      1.02309      .   S
    Zr229  O531      1.02309      .   S
    Zr83   O532      1.11893      .   S
    Zr233  O532      1.11893      .   S
    Zr83   O533      1.03669      .   S
    Zr128  O533      1.03669      .   S
    Zr82   O534      1.11893      .   S
    Zr232  O534      1.11893      .   S
    Zr82   O535      1.03669      .   S
    Zr127  O535      1.03669      .   S
    Zr94   O536      1.11893      .   S
    Zr244  O536      1.11893      .   S
    Zr94   O537      1.03669      .   S
    Zr139  O537      1.03669      .   S
    Zr95   O538      1.11893      .   S
    Zr245  O538      1.11893      .   S
    Zr95   O539      1.03669      .   S
    Zr140  O539      1.03669      .   S
    Zr217  O540      1.01682      .   S
    Zr97   O540      1.01682      .   S
    Zr218  O541      1.01682      .   S
    Zr98   O541      1.01682      .   S
    Zr229  O542      1.01682      .   S
    Zr109  O542      1.01682      .   S
    Zr230  O543      1.01682      .   S
    Zr110  O543      1.01682      .   S
    Zr157  O544      0.49995      .   S
    Zr142  O544      0.49995      .   S
    Zr158  O545      0.49995      .   S
    Zr143  O545      0.49995      .   S
    Zr169  O546      0.49995      .   S
    Zr154  O546      0.49995      .   S
    Zr170  O547      0.49995      .   S
    Zr155  O547      0.49995      .   S
    Zr155  O548      1.11420      .   S
    Zr80   O548      1.11420      .   S
    Zr154  O549      1.11420      .   S
    Zr79   O549      1.11420      .   S
    Zr142  O550      1.11420      .   S
    Zr67   O550      1.11420      .   S
    Zr143  O551      1.11420      .   S
    Zr68   O551      1.11420      .   S
    Zr124  O552      1.03564      .   S
    Zr64   O552      1.03564      .   S
    Zr124  O553      1.03380      .   S
    Zr79   O553      1.03380      .   S
    Zr113  O554      1.03564      .   S
    Zr53   O554      1.03564      .   S
    Zr113  O555      1.03380      .   S
    Zr68   O555      1.03380      .   S
    Zr112  O556      1.03564      .   S
    Zr52   O556      1.03564  1_545   S
    Zr112  O557      1.03380      .   S
    Zr67   O557      1.03380      .   S
    Zr125  O558      1.03564      .   S
    Zr65   O558      1.03564  1_565   S
    Zr125  O559      1.03380      .   S
    Zr80   O559      1.03380      .   S
    Zr97   O560      1.01980      .   S
    Zr202  O560      1.01980      .   S
    Zr98   O561      1.01980      .   S
    Zr203  O561      1.01980      .   S
    Zr109  O562      1.01980      .   S
    Zr214  O562      1.01980      .   S
    Zr110  O563      1.01980      .   S
    Zr215  O563      1.01980      .   S
    Zr65   O564      1.03548      .   S
    Zr140  O564      1.03548      .   S
    Zr64   O565      1.03548      .   S
    Zr139  O565      1.03548      .   S
    Zr53   O566      1.03548      .   S
    Zr128  O566      1.03548      .   S
    Zr52   O567      1.03548      .   S
    Zr127  O567      1.03548      .   S
    Zr244  O568      0.50026      .   S
    Zr259  O568      0.50026      .   S
    Zr245  O569      0.50026      .   S
    Zr260  O569      0.50026      .   S
    Zr233  O570      0.50026      .   S
    Zr248  O570      0.50026      .   S
    Zr232  O571      0.50026      .   S
    Zr247  O571      0.50026      .   S
    Zr203  O572      1.02664      .   S
    Zr23   O572      1.02664      .   S
    Zr214  O573      1.02664      .   S
    Zr34   O573      1.02664      .   S
    Zr215  O574      1.02664  1_545   S
    Zr35   O574      1.02664      .   S
    Zr202  O575      1.02664  1_565   S
    Zr22   O575      1.02664      .   S
    Zr80   O576      1.11765      .   S
    Zr185  O576      1.11765  1_565   S
    Zr79   O577      1.11765      .   S
    Zr184  O577      1.11765      .   S
    Zr68   O578      1.11765      .   S
    Zr173  O578      1.11765      .   S
    Zr67   O579      1.11765      .   S
    Zr172  O579      1.11765  1_545   S
    Zr184  O580      0.49897      .   S
    Zr199  O580      0.49897      .   S
    Zr185  O581      0.49897      .   S
    Zr200  O581      0.49897      .   S
    Zr173  O582      0.49897      .   S
    Zr188  O582      0.49897      .   S
    Zr172  O583      0.49897      .   S
    Zr187  O583      0.49897      .   S
    Zr6    O584      1.03985      .   S
    Zr1    O584      1.03985      .   S
    Zr7    O585      1.03919      .   S
    Zr0    O585      1.03919  1_455   S
    Zr8    O586      1.12045      .   S
    Zr1    O586      1.12045  1_655   S
    Zr8    O587      1.15893      .   S
    Zr5    O587      1.15893      .   S
    Zr10   O588      1.12019      .   S
    Zr0    O588      1.12019  1_455   S
    Zr10   O589      1.12334      .   S
    Zr2    O589      1.12334      .   S
    Zr12   O590      1.03656      .   S
    Zr3    O590      1.03656  1_655   S
    Zr13   O591      1.03528      .   S
    Zr4    O591      1.03528      .   S
    Zr14   O592      1.12546      .   S
    Zr0    O592      1.12546      .   S
    Zr14   O593      1.16951      .   S
    Zr5    O593      1.16951      .   S
    Zr16   O594      1.12295      .   S
    Zr2    O594      1.12295      .   S
    Zr16   O595      1.12084      .   S
    Zr4    O595      1.12084  1_455   S
    Zr111  O596      1.03985      .   S
    Zr36   O596      1.03985      .   S
    Zr112  O597      1.03985      .   S
    Zr37   O597      1.03985      .   S
    Zr113  O598      1.03985      .   S
    Zr38   O598      1.03985      .   S
    Zr114  O599      1.03985      .   S
    Zr39   O599      1.03985      .   S
    Zr115  O600      1.03985      .   S
    Zr40   O600      1.03985      .   S
    Zr116  O601      1.03985      .   S
    Zr41   O601      1.03985      .   S
    Zr117  O602      1.03985      .   S
    Zr42   O602      1.03985      .   S
    Zr118  O603      1.03985      .   S
    Zr43   O603      1.03985      .   S
    Zr119  O604      1.03985      .   S
    Zr44   O604      1.03985      .   S
    Zr120  O605      1.03985      .   S
    Zr45   O605      1.03985      .   S
    Zr121  O606      1.03985      .   S
    Zr46   O606      1.03985      .   S
    Zr122  O607      1.03985      .   S
    Zr47   O607      1.03985      .   S
    Zr123  O608      1.03985      .   S
    Zr48   O608      1.03985      .   S
    Zr124  O609      1.03985      .   S
    Zr49   O609      1.03985      .   S
    Zr125  O610      1.03985      .   S
    Zr50   O610      1.03985      .   S
    Zr126  O611      1.03919      .   S
    Zr21   O611      1.03919  1_655   S
    Zr127  O612      1.03919      .   S
    Zr22   O612      1.03919      .   S
    Zr128  O613      1.03919      .   S
    Zr23   O613      1.03919      .   S
    Zr129  O614      1.03919      .   S
    Zr24   O614      1.03919      .   S
    Zr130  O615      1.03919      .   S
    Zr25   O615      1.03919      .   S
    Zr131  O616      1.03919      .   S
    Zr26   O616      1.03919      .   S
    Zr132  O617      1.03919      .   S
    Zr27   O617      1.03919      .   S
    Zr133  O618      1.03919      .   S
    Zr28   O618      1.03919  1_455   S
    Zr134  O619      1.03919      .   S
    Zr29   O619      1.03919  1_655   S
    Zr135  O620      1.03919      .   S
    Zr30   O620      1.03919      .   S
    Zr136  O621      1.03919      .   S
    Zr31   O621      1.03919      .   S
    Zr137  O622      1.03919      .   S
    Zr32   O622      1.03919      .   S
    Zr138  O623      1.03919      .   S
    Zr33   O623      1.03919      .   S
    Zr139  O624      1.03919      .   S
    Zr34   O624      1.03919      .   S
    Zr140  O625      1.03919      .   S
    Zr35   O625      1.03919      .   S
    Zr141  O626      1.12045      .   S
    Zr36   O626      1.12045  1_455   S
    Zr141  O627      1.15893      .   S
    Zr96   O627      1.15893      .   S
    Zr142  O628      1.12045      .   S
    Zr37   O628      1.12045      .   S
    Zr142  O629      1.15893      .   S
    Zr97   O629      1.15893      .   S
    Zr143  O630      1.12045      .   S
    Zr38   O630      1.12045      .   S
    Zr143  O631      1.15893      .   S
    Zr98   O631      1.15893      .   S
    Zr144  O632      1.12045      .   S
    Zr39   O632      1.12045      .   S
    Zr144  O633      1.15893      .   S
    Zr99   O633      1.15893      .   S
    Zr145  O634      1.12045      .   S
    Zr40   O634      1.12045      .   S
    Zr145  O635      1.15893      .   S
    Zr100  O635      1.15893      .   S
    Zr146  O636      1.12045      .   S
    Zr41   O636      1.12045      .   S
    Zr146  O637      1.15893      .   S
    Zr101  O637      1.15893      .   S
    Zr147  O638      1.12045      .   S
    Zr42   O638      1.12045      .   S
    Zr147  O639      1.15893      .   S
    Zr102  O639      1.15893      .   S
    Zr148  O640      1.12045      .   S
    Zr43   O640      1.12045  1_655   S
    Zr148  O641      1.15893      .   S
    Zr103  O641      1.15893      .   S
    Zr149  O642      1.12045      .   S
    Zr44   O642      1.12045  1_455   S
    Zr149  O643      1.15893      .   S
    Zr104  O643      1.15893      .   S
    Zr150  O644      1.12045      .   S
    Zr45   O644      1.12045      .   S
    Zr150  O645      1.15893      .   S
    Zr105  O645      1.15893      .   S
    Zr151  O646      1.12045      .   S
    Zr46   O646      1.12045      .   S
    Zr151  O647      1.15893      .   S
    Zr106  O647      1.15893      .   S
    Zr152  O648      1.12045      .   S
    Zr47   O648      1.12045      .   S
    Zr152  O649      1.15893      .   S
    Zr107  O649      1.15893      .   S
    Zr153  O650      1.12045      .   S
    Zr48   O650      1.12045      .   S
    Zr153  O651      1.15893      .   S
    Zr108  O651      1.15893      .   S
    Zr154  O652      1.12045      .   S
    Zr49   O652      1.12045      .   S
    Zr154  O653      1.15893      .   S
    Zr109  O653      1.15893      .   S
    Zr155  O654      1.12045      .   S
    Zr50   O654      1.12045      .   S
    Zr155  O655      1.15893      .   S
    Zr110  O655      1.15893      .   S
    Zr171  O656      1.12019      .   S
    Zr21   O656      1.12019  1_655   S
    Zr171  O657      1.12334      .   S
    Zr51   O657      1.12334      .   S
    Zr172  O658      1.12019      .   S
    Zr22   O658      1.12019      .   S
    Zr172  O659      1.12334      .   S
    Zr52   O659      1.12334      .   S
    Zr173  O660      1.12019      .   S
    Zr23   O660      1.12019      .   S
    Zr173  O661      1.12334      .   S
    Zr53   O661      1.12334      .   S
    Zr174  O662      1.12019      .   S
    Zr24   O662      1.12019      .   S
    Zr174  O663      1.12334      .   S
    Zr54   O663      1.12334      .   S
    Zr175  O664      1.12019      .   S
    Zr25   O664      1.12019      .   S
    Zr175  O665      1.12334      .   S
    Zr55   O665      1.12334      .   S
    Zr176  O666      1.12019      .   S
    Zr26   O666      1.12019      .   S
    Zr176  O667      1.12334      .   S
    Zr56   O667      1.12334      .   S
    Zr177  O668      1.12019      .   S
    Zr27   O668      1.12019      .   S
    Zr177  O669      1.12334      .   S
    Zr57   O669      1.12334      .   S
    Zr178  O670      1.12019      .   S
    Zr28   O670      1.12019  1_455   S
    Zr178  O671      1.12334      .   S
    Zr58   O671      1.12334      .   S
    Zr179  O672      1.12019      .   S
    Zr29   O672      1.12019  1_655   S
    Zr179  O673      1.12334      .   S
    Zr59   O673      1.12334      .   S
    Zr180  O674      1.12019      .   S
    Zr30   O674      1.12019      .   S
    Zr180  O675      1.12334      .   S
    Zr60   O675      1.12334      .   S
    Zr181  O676      1.12019      .   S
    Zr31   O676      1.12019      .   S
    Zr181  O677      1.12334      .   S
    Zr61   O677      1.12334      .   S
    Zr182  O678      1.12019      .   S
    Zr32   O678      1.12019      .   S
    Zr182  O679      1.12334      .   S
    Zr62   O679      1.12334      .   S
    Zr183  O680      1.12019      .   S
    Zr33   O680      1.12019      .   S
    Zr183  O681      1.12334      .   S
    Zr63   O681      1.12334      .   S
    Zr184  O682      1.12019      .   S
    Zr34   O682      1.12019      .   S
    Zr184  O683      1.12334      .   S
    Zr64   O683      1.12334      .   S
    Zr185  O684      1.12019      .   S
    Zr35   O684      1.12019      .   S
    Zr185  O685      1.12334      .   S
    Zr65   O685      1.12334      .   S
    Zr201  O686      1.03656      .   S
    Zr66   O686      1.03656  1_455   S
    Zr202  O687      1.03656      .   S
    Zr67   O687      1.03656      .   S
    Zr203  O688      1.03656      .   S
    Zr68   O688      1.03656      .   S
    Zr204  O689      1.03656      .   S
    Zr69   O689      1.03656      .   S
    Zr205  O690      1.03656      .   S
    Zr70   O690      1.03656      .   S
    Zr206  O691      1.03656      .   S
    Zr71   O691      1.03656      .   S
    Zr207  O692      1.03656      .   S
    Zr72   O692      1.03656      .   S
    Zr208  O693      1.03656      .   S
    Zr73   O693      1.03656  1_655   S
    Zr209  O694      1.03656      .   S
    Zr74   O694      1.03656  1_455   S
    Zr210  O695      1.03656      .   S
    Zr75   O695      1.03656      .   S
    Zr211  O696      1.03656      .   S
    Zr76   O696      1.03656      .   S
    Zr212  O697      1.03656      .   S
    Zr77   O697      1.03656      .   S
    Zr213  O698      1.03656      .   S
    Zr78   O698      1.03656      .   S
    Zr214  O699      1.03656      .   S
    Zr79   O699      1.03656      .   S
    Zr215  O700      1.03656      .   S
    Zr80   O700      1.03656      .   S
    Zr216  O701      1.03528      .   S
    Zr81   O701      1.03528      .   S
    Zr217  O702      1.03528  1_565   S
    Zr82   O702      1.03528      .   S
    Zr218  O703      1.03528      .   S
    Zr83   O703      1.03528      .   S
    Zr219  O704      1.03528      .   S
    Zr84   O704      1.03528      .   S
    Zr220  O705      1.03528      .   S
    Zr85   O705      1.03528      .   S
    Zr221  O706      1.03528  1_565   S
    Zr86   O706      1.03528      .   S
    Zr222  O707      1.03528      .   S
    Zr87   O707      1.03528      .   S
    Zr223  O708      1.03528      .   S
    Zr88   O708      1.03528      .   S
    Zr224  O709      1.03528      .   S
    Zr89   O709      1.03528      .   S
    Zr225  O710      1.03528      .   S
    Zr90   O710      1.03528      .   S
    Zr226  O711      1.03528  1_545   S
    Zr91   O711      1.03528      .   S
    Zr227  O712      1.03528      .   S
    Zr92   O712      1.03528      .   S
    Zr228  O713      1.03528      .   S
    Zr93   O713      1.03528      .   S
    Zr229  O714      1.03528      .   S
    Zr94   O714      1.03528      .   S
    Zr230  O715      1.03528  1_545   S
    Zr95   O715      1.03528      .   S
    Zr231  O716      1.12546      .   S
    Zr21   O716      1.12546      .   S
    Zr231  O717      1.16951      .   S
    Zr96   O717      1.16951      .   S
    Zr232  O718      1.12546      .   S
    Zr22   O718      1.12546      .   S
    Zr232  O719      1.16951      .   S
    Zr97   O719      1.16951  1_565   S
    Zr233  O720      1.12546      .   S
    Zr23   O720      1.12546      .   S
    Zr233  O721      1.16951      .   S
    Zr98   O721      1.16951      .   S
    Zr234  O722      1.12546      .   S
    Zr24   O722      1.12546      .   S
    Zr234  O723      1.16951      .   S
    Zr99   O723      1.16951      .   S
    Zr235  O724      1.12546      .   S
    Zr25   O724      1.12546      .   S
    Zr235  O725      1.16951      .   S
    Zr100  O725      1.16951      .   S
    Zr236  O726      1.12546      .   S
    Zr26   O726      1.12546      .   S
    Zr236  O727      1.16951      .   S
    Zr101  O727      1.16951  1_565   S
    Zr237  O728      1.12546      .   S
    Zr27   O728      1.12546      .   S
    Zr237  O729      1.16951      .   S
    Zr102  O729      1.16951      .   S
    Zr238  O730      1.12546      .   S
    Zr28   O730      1.12546      .   S
    Zr238  O731      1.16951      .   S
    Zr103  O731      1.16951      .   S
    Zr239  O732      1.12546      .   S
    Zr29   O732      1.12546      .   S
    Zr239  O733      1.16951      .   S
    Zr104  O733      1.16951      .   S
    Zr240  O734      1.12546      .   S
    Zr30   O734      1.12546      .   S
    Zr240  O735      1.16951      .   S
    Zr105  O735      1.16951      .   S
    Zr241  O736      1.12546      .   S
    Zr31   O736      1.12546      .   S
    Zr241  O737      1.16951      .   S
    Zr106  O737      1.16951  1_545   S
    Zr242  O738      1.12546      .   S
    Zr32   O738      1.12546      .   S
    Zr242  O739      1.16951      .   S
    Zr107  O739      1.16951      .   S
    Zr243  O740      1.12546      .   S
    Zr33   O740      1.12546      .   S
    Zr243  O741      1.16951      .   S
    Zr108  O741      1.16951      .   S
    Zr244  O742      1.12546      .   S
    Zr34   O742      1.12546      .   S
    Zr244  O743      1.16951      .   S
    Zr109  O743      1.16951      .   S
    Zr245  O744      1.12546      .   S
    Zr35   O744      1.12546      .   S
    Zr245  O745      1.16951      .   S
    Zr110  O745      1.16951  1_545   S
    Zr261  O746      1.12295      .   S
    Zr51   O746      1.12295      .   S
    Zr261  O747      1.12084      .   S
    Zr81   O747      1.12084  1_655   S
    Zr262  O748      1.12295      .   S
    Zr52   O748      1.12295      .   S
    Zr262  O749      1.12084      .   S
    Zr82   O749      1.12084      .   S
    Zr263  O750      1.12295      .   S
    Zr53   O750      1.12295      .   S
    Zr263  O751      1.12084      .   S
    Zr83   O751      1.12084      .   S
    Zr264  O752      1.12295      .   S
    Zr54   O752      1.12295      .   S
    Zr264  O753      1.12084      .   S
    Zr84   O753      1.12084      .   S
    Zr265  O754      1.12295      .   S
    Zr55   O754      1.12295      .   S
    Zr265  O755      1.12084      .   S
    Zr85   O755      1.12084      .   S
    Zr266  O756      1.12295      .   S
    Zr56   O756      1.12295      .   S
    Zr266  O757      1.12084      .   S
    Zr86   O757      1.12084      .   S
    Zr267  O758      1.12295      .   S
    Zr57   O758      1.12295      .   S
    Zr267  O759      1.12084      .   S
    Zr87   O759      1.12084      .   S
    Zr268  O760      1.12295      .   S
    Zr58   O760      1.12295      .   S
    Zr268  O761      1.12084      .   S
    Zr88   O761      1.12084  1_455   S
    Zr269  O762      1.12295      .   S
    Zr59   O762      1.12295      .   S
    Zr269  O763      1.12084      .   S
    Zr89   O763      1.12084  1_655   S
    Zr270  O764      1.12295      .   S
    Zr60   O764      1.12295      .   S
    Zr270  O765      1.12084      .   S
    Zr90   O765      1.12084      .   S
    Zr271  O766      1.12295      .   S
    Zr61   O766      1.12295      .   S
    Zr271  O767      1.12084      .   S
    Zr91   O767      1.12084      .   S
    Zr272  O768      1.12295      .   S
    Zr62   O768      1.12295      .   S
    Zr272  O769      1.12084      .   S
    Zr92   O769      1.12084      .   S
    Zr273  O770      1.12295      .   S
    Zr63   O770      1.12295      .   S
    Zr273  O771      1.12084      .   S
    Zr93   O771      1.12084      .   S
    Zr274  O772      1.12295      .   S
    Zr64   O772      1.12295      .   S
    Zr274  O773      1.12084      .   S
    Zr94   O773      1.12084      .   S
    Zr275  O774      1.12295      .   S
    Zr65   O774      1.12295      .   S
    Zr275  O775      1.12084      .   S
    Zr95   O775      1.12084      .   S
    N776   O777      2.26038      .   S
    Zr60   O777      3.36107      .   S
    N776   O778      2.13999      .   S
    Zr75   O778      3.26153      .   S
    N776   O779      2.11698      .   S
    Zr5    O779      3.22201      .   S
    N776   O780      2.27815      .   S
    Zr1    O780      3.39285  1_655   S
    N781   O782      2.24291      .   S
    Zr74   O782      3.32597      .   S
    N781   O783      2.25905      .   S
    Zr4    O783      3.34923      .   S
    N781   O784      2.15478  1_455   S
    Zr1    O784      3.28202      .   S
    N781   O785      2.18475  1_455   S
    Zr29   O785      3.31789      .   S
    N786   O787      2.13001      .   S
    Zr5    O787      3.21138      .   S
    N786   O788      2.24947      .   S
    Zr98   O788      3.33185      .   S
    N786   O789      2.25597      .   S
    Zr3    O789      3.38651  1_655   S
    N786   O790      2.15856      .   S
    Zr83   O790      3.31355      .   S
    N791   O792      2.12628      .   S
    Zr50   O792      3.24265      .   S
    N791   O793      2.25558      .   S
    Zr65   O793      3.34600  1_565   S
    N791   O794      2.27646      .   S
    Zr0    O794      3.39398  1_455   S
    N791   O795      2.10581      .   S
    Zr2    O795      3.20626      .   S
    N797   O798      2.26251      .   S
    Zr4    O798      3.37335  1_455   S
    N797   O799      2.12920      .   S
    Zr26   O799      3.25976      .   S
    N797   O800      2.26118      .   S
    Zr101  O800      3.35590  1_565   S
    N797   O801      2.13091      .   S
    Zr2    O801      3.22063      .   S
    N802   O803      1.08535      .   S
    Zr1    O803      2.15197      .   S
    N810   O811      2.13999      .   S
    Zr77   O811      3.26153      .   S
    N810   O812      2.26038      .   S
    Zr62   O812      3.36107      .   S
    N810   O813      2.11698      .   S
    Zr97   O813      3.22201      .   S
    N810   O814      2.27815      .   S
    Zr37   O814      3.39285      .   S
    N815   O816      2.13999      .   S
    Zr66   O816      3.26153      .   S
    N815   O817      2.26038      .   S
    Zr51   O817      3.36107      .   S
    N815   O818      2.11698      .   S
    Zr98   O818      3.22201      .   S
    N815   O819      2.27815      .   S
    Zr38   O819      3.39285      .   S
    N820   O821      2.13999      .   S
    Zr79   O821      3.26153      .   S
    N820   O822      2.26038      .   S
    Zr64   O822      3.36107      .   S
    N820   O823      2.11698  1_556   S
    Zr99   O823      3.22201      .   S
    N820   O824      2.27815  1_556   S
    Zr39   O824      3.39285      .   S
    N825   O826      2.13999      .   S
    Zr68   O826      3.26153      .   S
    N825   O827      2.26038      .   S
    Zr53   O827      3.36107      .   S
    N825   O828      2.11698  1_556   S
    Zr100  O828      3.22201      .   S
    N825   O829      2.27815  1_556   S
    Zr40   O829      3.39285      .   S
    N830   O831      2.13999      .   S
    Zr73   O831      3.26153      .   S
    N830   O832      2.26038      .   S
    Zr58   O832      3.36107      .   S
    N830   O833      2.11698      .   S
    Zr101  O833      3.22201      .   S
    N830   O834      2.27815      .   S
    Zr41   O834      3.39285      .   S
    N835   O836      2.13999      .   S
    Zr70   O836      3.26153      .   S
    N835   O837      2.26038      .   S
    Zr55   O837      3.36107      .   S
    N835   O838      2.11698      .   S
    Zr102  O838      3.22201      .   S
    N835   O839      2.27815      .   S
    Zr42   O839      3.39285      .   S
    N840   O841      2.13999      .   S
    Zr67   O841      3.26153      .   S
    N840   O842      2.26038      .   S
    Zr52   O842      3.36107  1_545   S
    N840   O843      2.11698  1_556   S
    Zr103  O843      3.22201      .   S
    N840   O844      2.27815  1_556   S
    Zr43   O844      3.39285  1_655   S
    N845   O846      2.24947      .   S
    Zr109  O846      3.33185      .   S
    N845   O847      2.15856      .   S
    Zr94   O847      3.31355      .   S
    N845   O848      2.13001      .   S
    Zr96   O848      3.21138      .   S
    N845   O849      2.25597      .   S
    Zr66   O849      3.38651  1_455   S
    N850   O851      2.24947      .   S
    Zr100  O851      3.33185      .   S
    N850   O852      2.15856      .   S
    Zr85   O852      3.31355      .   S
    N850   O853      2.13001  1_554   S
    Zr97   O853      3.21138      .   S
    N850   O854      2.25597  1_554   S
    Zr67   O854      3.38651      .   S
    N855   O856      2.24947      .   S
    Zr103  O856      3.33185      .   S
    N855   O857      2.15856      .   S
    Zr88   O857      3.31355      .   S
    N855   O858      2.13001  1_554   S
    Zr98   O858      3.21138      .   S
    N855   O859      2.25597  1_554   S
    Zr68   O859      3.38651      .   S
    N860   O861      2.24947      .   S
    Zr102  O861      3.33185      .   S
    N860   O862      2.15856      .   S
    Zr87   O862      3.31355      .   S
    N860   O863      2.13001      .   S
    Zr99   O863      3.21138      .   S
    N860   O864      2.25597      .   S
    Zr69   O864      3.38651      .   S
    N865   O866      2.24947      .   S
    Zr105  O866      3.33185      .   S
    N865   O867      2.15856      .   S
    Zr90   O867      3.31355      .   S
    N865   O868      2.13001      .   S
    Zr100  O868      3.21138      .   S
    N865   O869      2.25597      .   S
    Zr70   O869      3.38651      .   S
    N870   O871      2.24947      .   S
    Zr96   O871      3.33185      .   S
    N870   O872      2.13001      .   S
    Zr101  O872      3.21138      .   S
    N870   O873      2.25597      .   S
    Zr71   O873      3.38651      .   S
    N870   O874      2.15856      .   S
    Zr81   O874      3.31355      .   S
    N875   O876      2.24947      .   S
    Zr107  O876      3.33185      .   S
    N875   O877      2.13001      .   S
    Zr102  O877      3.21138      .   S
    N875   O878      2.25597      .   S
    Zr72   O878      3.38651      .   S
    N875   O879      2.15856      .   S
    Zr92   O879      3.31355      .   S
    N880   O881      2.24947      .   S
    Zr106  O881      3.33185  1_545   S
    N880   O882      2.13001      .   S
    Zr103  O882      3.21138      .   S
    N880   O883      2.25597      .   S
    Zr73   O883      3.38651  1_655   S
    N880   O884      2.15856      .   S
    Zr91   O884      3.31355      .   S
    N885   O886      2.24947      .   S
    Zr101  O886      3.33185  1_565   S
    N885   O887      2.13001      .   S
    Zr104  O887      3.21138      .   S
    N885   O888      2.25597      .   S
    Zr74   O888      3.38651  1_455   S
    N885   O889      2.15856      .   S
    Zr86   O889      3.31355      .   S
    N890   O891      2.24947      .   S
    Zr108  O891      3.33185      .   S
    N890   O892      2.13001      .   S
    Zr105  O892      3.21138      .   S
    N890   O893      2.25597      .   S
    Zr75   O893      3.38651      .   S
    N890   O894      2.15856      .   S
    Zr93   O894      3.31355      .   S
    N895   O896      0.95589      .   S
    Zr92   O896      1.95326      .   S
    N897   O898      0.95589      .   S
    Zr93   O898      1.95326      .   S
    N899   O900      0.95589      .   S
    Zr94   O900      1.95326      .   S
    N901   O902      0.95589      .   S
    Zr95   O902      1.95326      .   S
    N903   O904      2.25558      .   S
    Zr52   O904      3.34600  1_545   S
    N903   O905      2.12628      .   S
    Zr37   O905      3.24265      .   S
    N903   O906      2.10581      .   S
    Zr51   O906      3.20626      .   S
    N903   O907      2.27646      .   S
    Zr21   O907      3.39398  1_655   S
    N908   O909      2.25558      .   S
    Zr59   O909      3.34600      .   S
    N908   O910      2.12628      .   S
    Zr44   O910      3.24265      .   S
    N908   O911      2.10581  1_554   S
    Zr52   O911      3.20626      .   S
    N908   O912      2.27646  1_554   S
    Zr22   O912      3.39398      .   S
    N913   O914      2.25558      .   S
    Zr54   O914      3.34600      .   S
    N913   O915      2.12628      .   S
    Zr39   O915      3.24265      .   S
    N913   O916      2.10581  1_554   S
    Zr53   O916      3.20626      .   S
    N913   O917      2.27646  1_554   S
    Zr23   O917      3.39398      .   S
    N918   O919      2.25558      .   S
    Zr61   O919      3.34600  1_565   S
    N918   O920      2.12628      .   S
    Zr46   O920      3.24265      .   S
    N918   O921      2.10581      .   S
    Zr54   O921      3.20626      .   S
    N918   O922      2.27646      .   S
    Zr24   O922      3.39398      .   S
    N923   O924      2.25558      .   S
    Zr56   O924      3.34600  1_545   S
    N923   O925      2.12628      .   S
    Zr41   O925      3.24265      .   S
    N923   O926      2.10581      .   S
    Zr55   O926      3.20626      .   S
    N923   O927      2.27646      .   S
    Zr25   O927      3.39398      .   S
    N928   O929      2.25558      .   S
    Zr63   O929      3.34600      .   S
    N928   O930      2.12628      .   S
    Zr48   O930      3.24265      .   S
    N928   O931      2.10581      .   S
    Zr56   O931      3.20626      .   S
    N928   O932      2.27646      .   S
    Zr26   O932      3.39398      .   S
    N933   O934      2.25558      .   S
    Zr2    O934      3.34600      .   S
    N933   O935      2.12628      .   S
    Zr1    O935      3.24265      .   S
    N933   O936      2.10581      .   S
    Zr57   O936      3.20626      .   S
    N933   O937      2.27646      .   S
    Zr27   O937      3.39398      .   S
    N938   O939      2.25558      .   S
    Zr57   O939      3.34600      .   S
    N938   O940      2.12628      .   S
    Zr42   O940      3.24265      .   S
    N938   O941      2.10581      .   S
    Zr58   O941      3.20626      .   S
    N938   O942      2.27646      .   S
    Zr28   O942      3.39398  1_455   S
    N943   O944      2.25558      .   S
    Zr60   O944      3.34600      .   S
    N943   O945      2.12628      .   S
    Zr45   O945      3.24265      .   S
    N943   O946      2.10581      .   S
    Zr59   O946      3.20626      .   S
    N943   O947      2.27646      .   S
    Zr29   O947      3.39398  1_655   S
    N948   O949      2.25558      .   S
    Zr51   O949      3.34600      .   S
    N948   O950      2.12628      .   S
    Zr36   O950      3.24265      .   S
    N948   O951      2.10581      .   S
    Zr60   O951      3.20626      .   S
    N948   O952      2.27646      .   S
    Zr30   O952      3.39398      .   S
    N953   O954      2.25558      .   S
    Zr62   O954      3.34600      .   S
    N953   O955      2.12628      .   S
    Zr47   O955      3.24265      .   S
    N953   O956      2.10581      .   S
    Zr61   O956      3.20626      .   S
    N953   O957      2.27646      .   S
    Zr31   O957      3.39398      .   S
    N958   O959      2.25558      .   S
    Zr53   O959      3.34600      .   S
    N958   O960      2.12628      .   S
    Zr38   O960      3.24265      .   S
    N958   O961      2.10581      .   S
    Zr62   O961      3.20626      .   S
    N958   O962      2.27646      .   S
    Zr32   O962      3.39398      .   S
    N963   O964      2.25558      .   S
    Zr64   O964      3.34600      .   S
    N963   O965      2.12628      .   S
    Zr49   O965      3.24265      .   S
    N963   O966      2.10581      .   S
    Zr63   O966      3.20626      .   S
    N963   O967      2.27646      .   S
    Zr33   O967      3.39398      .   S
    N968   O969      2.25558      .   S
    Zr55   O969      3.34600      .   S
    N968   O970      2.12628      .   S
    Zr40   O970      3.24265      .   S
    N968   O971      2.10581  1_554   S
    Zr64   O971      3.20626      .   S
    N968   O972      2.27646  1_554   S
    Zr34   O972      3.39398      .   S
    N973   O974      2.25558      .   S
    Zr58   O974      3.34600      .   S
    N973   O975      2.12628      .   S
    Zr43   O975      3.24265      .   S
    N973   O976      2.10581  1_554   S
    Zr65   O976      3.20626      .   S
    N973   O977      2.27646  1_554   S
    Zr35   O977      3.39398      .   S
    N978   O979      2.12920      .   S
    Zr31   O979      3.25976      .   S
    N978   O980      2.26118      .   S
    Zr106  O980      3.35590  1_545   S
    N978   O981      2.13091      .   S
    Zr51   O981      3.22063      .   S
    N978   O982      2.26251      .   S
    Zr81   O982      3.37335  1_655   S
    N983   O984      2.12920      .   S
    Zr0    O984      3.25976      .   S
    N983   O985      2.26118      .   S
    Zr5    O985      3.35590      .   S
    N983   O986      2.13091      .   S
    Zr52   O986      3.22063      .   S
    N983   O987      2.26251      .   S
    Zr82   O987      3.37335      .   S
    N988   O989      2.12920      .   S
    Zr33   O989      3.25976      .   S
    N988   O990      2.26118      .   S
    Zr108  O990      3.35590      .   S
    N988   O991      2.13091      .   S
    Zr53   O991      3.22063      .   S
    N988   O992      2.26251      .   S
    Zr83   O992      3.37335      .   S
    N993   O994      2.12920  1_554   S
    Zr22   O994      3.25976      .   S
    N993   O995      2.26118  1_554   S
    Zr97   O995      3.35590  1_565   S
    N993   O996      2.13091      .   S
    Zr54   O996      3.22063      .   S
    N993   O997      2.26251      .   S
    Zr84   O997      3.37335      .   S
    N998   O999      2.12920  1_554   S
    Zr35   O999      3.25976      .   S
    N998   O1000     2.26118  1_554   S
    Zr110  O1000     3.35590  1_545   S
    N998   O1001     2.13091      .   S
    Zr55   O1001     3.22063      .   S
    N998   O1002     2.26251      .   S
    Zr85   O1002     3.37335      .   S
    N1003  O1004     2.12920      .   S
    Zr24   O1004     3.25976      .   S
    N1003  O1005     2.26118      .   S
    Zr99   O1005     3.35590      .   S
    N1003  O1006     2.13091      .   S
    Zr56   O1006     3.22063      .   S
    N1003  O1007     2.26251      .   S
    Zr86   O1007     3.37335      .   S
    N1008  O1009     0.95589      .   S
    Zr4    O1009     1.95326      .   S
    N1010  O1011     1.18188      .   S
    Zr0    O1011     2.25653      .   S
    N1012  O1013     0.97762      .   S
    Zr3    O1013     1.96608      .   S
    N1014  O1015     2.24947      .   S
    Zr5    O1015     3.33185      .   S
    N1014  O1016     2.13001      .   S
    Zr106  O1016     3.21138      .   S
    N1014  O1017     2.25597      .   S
    Zr76   O1017     3.38651      .   S
    N1014  O1018     2.15856      .   S
    Zr4    O1018     3.31355      .   S
    N1019  O1020     2.24947      .   S
    Zr110  O1020     3.33185  1_545   S
    N1019  O1021     2.13001      .   S
    Zr107  O1021     3.21138      .   S
    N1019  O1022     2.25597      .   S
    Zr77   O1022     3.38651      .   S
    N1019  O1023     2.15856      .   S
    Zr95   O1023     3.31355      .   S
    N1024  O1025     2.24947      .   S
    Zr97   O1025     3.33185  1_565   S
    N1024  O1026     2.13001      .   S
    Zr108  O1026     3.21138      .   S
    N1024  O1027     2.25597      .   S
    Zr78   O1027     3.38651      .   S
    N1024  O1028     2.15856      .   S
    Zr82   O1028     3.31355      .   S
    N1029  O1030     2.24947      .   S
    Zr104  O1030     3.33185      .   S
    N1029  O1031     2.13001  1_554   S
    Zr109  O1031     3.21138      .   S
    N1029  O1032     2.25597  1_554   S
    Zr79   O1032     3.38651      .   S
    N1029  O1033     2.15856      .   S
    Zr89   O1033     3.31355      .   S
    N1034  O1035     2.24947      .   S
    Zr99   O1035     3.33185      .   S
    N1034  O1036     2.13001  1_554   S
    Zr110  O1036     3.21138      .   S
    N1034  O1037     2.25597  1_554   S
    Zr80   O1037     3.38651      .   S
    N1034  O1038     2.15856      .   S
    Zr84   O1038     3.31355      .   S
    N1039  O1040     2.12920      .   S
    Zr29   O1040     3.25976      .   S
    N1039  O1041     2.26118      .   S
    Zr104  O1041     3.35590      .   S
    N1039  O1042     2.13091      .   S
    Zr57   O1042     3.22063      .   S
    N1039  O1043     2.26251      .   S
    Zr87   O1043     3.37335      .   S
    N1044  O1045     2.12920  1_554   S
    Zr34   O1045     3.25976      .   S
    N1044  O1046     2.26118  1_554   S
    Zr109  O1046     3.35590      .   S
    N1044  O1047     2.13091      .   S
    Zr58   O1047     3.22063      .   S
    N1044  O1048     2.26251      .   S
    Zr88   O1048     3.37335  1_455   S
    N1049  O1050     2.12920  1_554   S
    Zr23   O1050     3.25976      .   S
    N1049  O1051     2.26118  1_554   S
    Zr98   O1051     3.35590      .   S
    N1049  O1052     2.13091      .   S
    Zr59   O1052     3.22063      .   S
    N1049  O1053     2.26251      .   S
    Zr89   O1053     3.37335  1_655   S
    N1054  O1055     2.12920      .   S
    Zr28   O1055     3.25976      .   S
    N1054  O1056     2.26118      .   S
    Zr103  O1056     3.35590      .   S
    N1054  O1057     2.13091      .   S
    Zr60   O1057     3.22063      .   S
    N1054  O1058     2.26251      .   S
    Zr90   O1058     3.37335      .   S
    N1059  O1060     2.12920      .   S
    Zr25   O1060     3.25976      .   S
    N1059  O1061     2.26118      .   S
    Zr100  O1061     3.35590      .   S
    N1059  O1062     2.13091      .   S
    Zr61   O1062     3.22063      .   S
    N1059  O1063     2.26251      .   S
    Zr91   O1063     3.37335      .   S
    N1064  O1065     2.12920      .   S
    Zr30   O1065     3.25976      .   S
    N1064  O1066     2.26118      .   S
    Zr105  O1066     3.35590      .   S
    N1064  O1067     2.13091      .   S
    Zr62   O1067     3.22063      .   S
    N1064  O1068     2.26251      .   S
    Zr92   O1068     3.37335      .   S
    N1069  O1070     2.12920      .   S
    Zr27   O1070     3.25976      .   S
    N1069  O1071     2.26118      .   S
    Zr102  O1071     3.35590      .   S
    N1069  O1072     2.13091      .   S
    Zr63   O1072     3.22063      .   S
    N1069  O1073     2.26251      .   S
    Zr93   O1073     3.37335      .   S
    N1074  O1075     2.12920      .   S
    Zr32   O1075     3.25976      .   S
    N1074  O1076     2.26118      .   S
    Zr107  O1076     3.35590      .   S
    N1074  O1077     2.13091      .   S
    Zr64   O1077     3.22063      .   S
    N1074  O1078     2.26251      .   S
    Zr94   O1078     3.37335      .   S
    N1079  O1080     2.12920      .   S
    Zr21   O1080     3.25976      .   S
    N1079  O1081     2.26118      .   S
    Zr96   O1081     3.35590      .   S
    N1079  O1082     2.13091      .   S
    Zr65   O1082     3.22063      .   S
    N1079  O1083     2.26251      .   S
    Zr95   O1083     3.37335      .   S
    N1084  O1085     2.26038      .   S
    Zr57   O1085     3.36107      .   S
    N1084  O1086     2.13999      .   S
    Zr72   O1086     3.26153      .   S
    N1084  O1087     2.11698      .   S
    Zr96   O1087     3.22201      .   S
    N1084  O1088     2.27815      .   S
    Zr36   O1088     3.39285  1_455   S
    N1089  O1090     2.26038      .   S
    Zr65   O1090     3.36107  1_565   S
    N1089  O1091     2.13999      .   S
    Zr80   O1091     3.26153      .   S
    N1089  O1092     2.11698  1_556   S
    Zr104  O1092     3.22201      .   S
    N1089  O1093     2.27815  1_556   S
    Zr44   O1093     3.39285  1_455   S
    N1094  O1095     2.26038      .   S
    Zr54   O1095     3.36107      .   S
    N1094  O1096     2.13999      .   S
    Zr69   O1096     3.26153      .   S
    N1094  O1097     2.11698      .   S
    Zr105  O1097     3.22201      .   S
    N1094  O1098     2.27815      .   S
    Zr45   O1098     3.39285      .   S
    N1099  O1100     2.26038      .   S
    Zr59   O1100     3.36107      .   S
    N1099  O1101     2.13999      .   S
    Zr74   O1101     3.26153      .   S
    N1099  O1102     2.11698      .   S
    Zr106  O1102     3.22201      .   S
    N1099  O1103     2.27815      .   S
    Zr46   O1103     3.39285      .   S
    N1104  O1105     2.26038      .   S
    Zr56   O1105     3.36107  1_545   S
    N1104  O1106     2.13999      .   S
    Zr71   O1106     3.26153      .   S
    N1104  O1107     2.11698      .   S
    Zr107  O1107     3.22201      .   S
    N1104  O1108     2.27815      .   S
    Zr47   O1108     3.39285      .   S
    N1109  O1110     2.26038      .   S
    Zr61   O1110     3.36107  1_565   S
    N1109  O1111     2.13999      .   S
    Zr76   O1111     3.26153      .   S
    N1109  O1112     2.11698      .   S
    Zr108  O1112     3.22201      .   S
    N1109  O1113     2.27815      .   S
    Zr48   O1113     3.39285      .   S
    N1114  O1115     2.26038      .   S
    Zr2    O1115     3.36107      .   S
    N1114  O1116     2.13999      .   S
    Zr3    O1116     3.26153      .   S
    N1114  O1117     2.11698      .   S
    Zr109  O1117     3.22201      .   S
    N1114  O1118     2.27815      .   S
    Zr49   O1118     3.39285      .   S
    N1119  O1120     2.26038      .   S
    Zr63   O1120     3.36107      .   S
    N1119  O1121     2.13999      .   S
    Zr78   O1121     3.26153      .   S
    N1119  O1122     2.11698      .   S
    Zr110  O1122     3.22201      .   S
    N1119  O1123     2.27815      .   S
    Zr50   O1123     3.39285      .   S
    N1124  O1125     2.24291      .   S
    Zr73   O1125     3.32597      .   S
    N1124  O1126     2.25905      .   S
    Zr81   O1126     3.34923      .   S
    N1124  O1127     2.18475  1_655   S
    Zr28   O1127     3.31789      .   S
    N1124  O1128     2.15478  1_655   S
    Zr36   O1128     3.28202      .   S
    N1129  O1130     2.24291      .   S
    Zr76   O1130     3.32597      .   S
    N1129  O1131     2.25905      .   S
    Zr82   O1131     3.34923      .   S
    N1129  O1132     2.18475  1_545   S
    Zr31   O1132     3.31789      .   S
    N1129  O1133     2.15478  1_545   S
    Zr37   O1133     3.28202      .   S
    N1134  O1135     2.24291      .   S
    Zr75   O1135     3.32597      .   S
    N1134  O1136     2.25905      .   S
    Zr83   O1136     3.34923      .   S
    N1134  O1137     2.18475      .   S
    Zr30   O1137     3.31789      .   S
    N1134  O1138     2.15478      .   S
    Zr38   O1138     3.28202      .   S
    N1139  O1140     2.24291      .   S
    Zr78   O1140     3.32597      .   S
    N1139  O1141     2.25905      .   S
    Zr84   O1141     3.34923  1_554   S
    N1139  O1142     2.18475      .   S
    Zr33   O1142     3.31789      .   S
    N1139  O1143     2.15478      .   S
    Zr39   O1143     3.28202  1_554   S
    N1144  O1145     2.24291      .   S
    Zr77   O1145     3.32597      .   S
    N1144  O1146     2.25905      .   S
    Zr85   O1146     3.34923  1_554   S
    N1144  O1147     2.18475      .   S
    Zr32   O1147     3.31789      .   S
    N1144  O1148     2.15478      .   S
    Zr40   O1148     3.28202  1_554   S
    N1149  O1150     2.24291      .   S
    Zr80   O1150     3.32597  1_556   S
    N1149  O1151     2.25905      .   S
    Zr86   O1151     3.34923      .   S
    N1149  O1152     2.18475  1_545   S
    Zr35   O1152     3.31789  1_556   S
    N1149  O1153     2.15478  1_545   S
    Zr41   O1153     3.28202      .   S
    N1154  O1155     2.24291      .   S
    Zr79   O1155     3.32597  1_556   S
    N1154  O1156     2.25905      .   S
    Zr87   O1156     3.34923      .   S
    N1154  O1157     2.18475      .   S
    Zr34   O1157     3.31789  1_556   S
    N1154  O1158     2.15478      .   S
    Zr42   O1158     3.28202      .   S
    N1159  O1160     2.24291      .   S
    Zr66   O1160     3.32597      .   S
    N1159  O1161     2.25905      .   S
    Zr88   O1161     3.34923  1_554   S
    N1159  O1162     2.18475  1_455   S
    Zr21   O1162     3.31789      .   S
    N1159  O1163     2.15478  1_455   S
    Zr43   O1163     3.28202  1_554   S
    N1164  O1165     2.24291      .   S
    Zr3    O1165     3.32597      .   S
    N1164  O1166     2.25905      .   S
    Zr89   O1166     3.34923  1_554   S
    N1164  O1167     2.18475  1_655   S
    Zr0    O1167     3.31789      .   S
    N1164  O1168     2.15478  1_655   S
    Zr44   O1168     3.28202  1_554   S
    N1169  O1170     2.24291      .   S
    Zr68   O1170     3.32597  1_556   S
    N1169  O1171     2.25905      .   S
    Zr90   O1171     3.34923      .   S
    N1169  O1172     2.18475      .   S
    Zr23   O1172     3.31789  1_556   S
    N1169  O1173     2.15478      .   S
    Zr45   O1173     3.28202      .   S
    N1174  O1175     2.24291      .   S
    Zr67   O1175     3.32597  1_556   S
    N1174  O1176     2.25905      .   S
    Zr91   O1176     3.34923      .   S
    N1174  O1177     2.18475  1_565   S
    Zr22   O1177     3.31789  1_556   S
    N1174  O1178     2.15478  1_565   S
    Zr46   O1178     3.28202      .   S
    N1179  O1180     2.24291      .   S
    Zr70   O1180     3.32597      .   S
    N1179  O1181     2.25905      .   S
    Zr92   O1181     3.34923      .   S
    N1179  O1182     2.18475      .   S
    Zr25   O1182     3.31789      .   S
    N1179  O1183     2.15478      .   S
    Zr47   O1183     3.28202      .   S
    N1184  O1185     2.24291      .   S
    Zr69   O1185     3.32597      .   S
    N1184  O1186     2.25905      .   S
    Zr93   O1186     3.34923      .   S
    N1184  O1187     2.18475      .   S
    Zr24   O1187     3.31789      .   S
    N1184  O1188     2.15478      .   S
    Zr48   O1188     3.28202      .   S
    N1189  O1190     2.24291      .   S
    Zr72   O1190     3.32597      .   S
    N1189  O1191     2.25905      .   S
    Zr94   O1191     3.34923      .   S
    N1189  O1192     2.18475      .   S
    Zr27   O1192     3.31789      .   S
    N1189  O1193     2.15478      .   S
    Zr49   O1193     3.28202      .   S
    N1194  O1195     2.24291      .   S
    Zr71   O1195     3.32597      .   S
    N1194  O1196     2.25905      .   S
    Zr95   O1196     3.34923      .   S
    N1194  O1197     2.18475  1_565   S
    Zr26   O1197     3.31789      .   S
    N1194  O1198     2.15478  1_565   S
    Zr50   O1198     3.28202      .   S
    N1199  O1200     1.08535      .   S
    Zr36   O1200     2.15197      .   S
    N1201  O1202     1.08535      .   S
    Zr37   O1202     2.15197      .   S
    N1203  O1204     1.08535      .   S
    Zr38   O1204     2.15197      .   S
    N1205  O1206     1.08535      .   S
    Zr39   O1206     2.15197      .   S
    N1207  O1208     1.08535      .   S
    Zr40   O1208     2.15197      .   S
    N1209  O1210     1.08535      .   S
    Zr41   O1210     2.15197      .   S
    N1211  O1212     1.08535      .   S
    Zr42   O1212     2.15197      .   S
    N1213  O1214     1.08535      .   S
    Zr43   O1214     2.15197      .   S
    N1215  O1216     1.08535      .   S
    Zr44   O1216     2.15197      .   S
    N1217  O1218     1.08535      .   S
    Zr45   O1218     2.15197      .   S
    N1219  O1220     1.08535      .   S
    Zr46   O1220     2.15197      .   S
    N1221  O1222     1.08535      .   S
    Zr47   O1222     2.15197      .   S
    N1223  O1224     1.08535      .   S
    Zr48   O1224     2.15197      .   S
    N1225  O1226     1.08535      .   S
    Zr49   O1226     2.15197      .   S
    N1227  O1228     1.08535      .   S
    Zr50   O1228     2.15197      .   S
    N1229  O1230     0.95589      .   S
    Zr81   O1230     1.95326      .   S
    N1231  O1232     0.95589      .   S
    Zr82   O1232     1.95326      .   S
    N1233  O1234     0.95589      .   S
    Zr83   O1234     1.95326      .   S
    N1235  O1236     0.95589      .   S
    Zr84   O1236     1.95326      .   S
    N1237  O1238     0.95589      .   S
    Zr85   O1238     1.95326      .   S
    N1239  O1240     0.95589      .   S
    Zr86   O1240     1.95326      .   S
    N1241  O1242     0.95589      .   S
    Zr87   O1242     1.95326      .   S
    N1243  O1244     0.95589      .   S
    Zr88   O1244     1.95326      .   S
    N1245  O1246     0.95589      .   S
    Zr89   O1246     1.95326      .   S
    N1247  O1248     0.95589      .   S
    Zr90   O1248     1.95326      .   S
    N1249  O1250     0.95589      .   S
    Zr91   O1250     1.95326      .   S
    N1251  O1252     0.97762      .   S
    Zr66   O1252     1.96608      .   S
    N1253  O1254     0.97762      .   S
    Zr67   O1254     1.96608      .   S
    N1255  O1256     0.97762      .   S
    Zr68   O1256     1.96608      .   S
    N1257  O1258     0.97762      .   S
    Zr69   O1258     1.96608      .   S
    N1259  O1260     0.97762      .   S
    Zr70   O1260     1.96608      .   S
    N1261  O1262     0.97762      .   S
    Zr71   O1262     1.96608      .   S
    N1263  O1264     0.97762      .   S
    Zr72   O1264     1.96608      .   S
    N1265  O1266     0.97762      .   S
    Zr73   O1266     1.96608      .   S
    N1267  O1268     0.97762      .   S
    Zr74   O1268     1.96608      .   S
    N1269  O1270     0.97762      .   S
    Zr75   O1270     1.96608      .   S
    N1271  O1272     0.97762      .   S
    Zr76   O1272     1.96608      .   S
    N1273  O1274     0.97762      .   S
    Zr77   O1274     1.96608      .   S
    N1275  O1276     0.97762      .   S
    Zr78   O1276     1.96608      .   S
    N1277  O1278     0.97762      .   S
    Zr79   O1278     1.96608      .   S
    N1279  O1280     0.97762      .   S
    Zr80   O1280     1.96608      .   S
    N1281  O1282     1.18188      .   S
    Zr21   O1282     2.25653      .   S
    N1283  O1284     1.18188      .   S
    Zr22   O1284     2.25653      .   S
    N1285  O1286     1.18188      .   S
    Zr23   O1286     2.25653      .   S
    N1287  O1288     1.18188      .   S
    Zr24   O1288     2.25653      .   S
    N1289  O1290     1.18188      .   S
    Zr25   O1290     2.25653      .   S
    N1291  O1292     1.18188      .   S
    Zr26   O1292     2.25653      .   S
    N1293  O1294     1.18188      .   S
    Zr27   O1294     2.25653      .   S
    N1295  O1296     1.18188      .   S
    Zr28   O1296     2.25653      .   S
    N1297  O1298     1.18188      .   S
    Zr29   O1298     2.25653      .   S
    N1299  O1300     1.18188      .   S
    Zr30   O1300     2.25653      .   S
    N1301  O1302     1.18188      .   S
    Zr31   O1302     2.25653      .   S
    N1303  O1304     1.18188      .   S
    Zr32   O1304     2.25653      .   S
    N1305  O1306     1.18188      .   S
    Zr33   O1306     2.25653      .   S
    N1307  O1308     1.18188      .   S
    Zr34   O1308     2.25653      .   S
    N1309  O1310     1.18188      .   S
    Zr35   O1310     2.25653      .   S
