# CIF file generated by openbabel 2.4.90, see http://openbabel.sf.net
data_I
_chemical_name_common ''
_cell_length_a 39.222
_cell_length_b 26.018
_cell_length_c 27.887
_cell_angle_alpha 90
_cell_angle_beta 90
_cell_angle_gamma 90
_space_group_name_H-M_alt 'P 1'
_space_group_name_Hall 'P 1'
loop_
    _symmetry_equiv_pos_as_xyz
    x,y,z
loop_
    _atom_site_label
    _atom_site_type_symbol
    _atom_site_fract_x
    _atom_site_fract_y
    _atom_site_fract_z
    _atom_site_occupancy
    N0      N    0.10659   0.39707   0.48941   1.000
    N1      N    0.00090   0.22099   0.37957   1.000
    N2      N    0.10814   0.40797   0.75343   1.000
    N3      N    0.89379   0.08632   0.76298   1.000
    N4      N    0.91224   0.19762   0.39826   1.000
    N5      N    0.89189   0.07479   0.51406   1.000
    N6      N    0.95237   0.41240   0.54850   1.000
    N7      N    0.92667   0.97480   0.37783   1.000
    N8      N    0.91674   0.23446   0.85254   1.000
    N9      N    0.02175   0.08165   0.46390   1.000
    N10     N    0.00000   0.50000   0.77851   1.000
    N11     N    0.99960   0.39250   0.40850   1.000
    N12     N    0.93750   0.39650   0.39450   1.000
    N13     N    0.35659   0.85293   0.73941   1.000
    N14     N    0.14341   0.64707   0.73941   1.000
    N15     N    0.60659   0.39708   0.98941   1.000
    N16     N    0.39341   0.60292   0.98941   1.000
    N17     N    0.85659   0.85293   0.23941   1.000
    N18     N    0.64341   0.64708   0.23941   1.000
    N19     N    0.10659   0.89707   0.98941   1.000
    N20     N    0.89186   0.59203   0.75343   1.000
    N21     N    0.35814   0.84203   0.00343   1.000
    N22     N    0.14186   0.65797   0.00343   1.000
    N23     N    0.60814   0.40797   0.25343   1.000
    N24     N    0.39186   0.59203   0.25343   1.000
    N25     N    0.85814   0.84203   0.50343   1.000
    N26     N    0.64186   0.65797   0.50343   1.000
    N27     N    0.10814   0.90797   0.25343   1.000
    N28     N    0.89186   0.09203   0.25343   1.000
    N29     N    0.35814   0.34203   0.50343   1.000
    N30     N    0.55880   0.58970   0.59440   1.000
    N31     N    0.44120   0.41030   0.59440   1.000
    N32     N    0.80880   0.66030   0.84440   1.000
    N33     N    0.69120   0.83970   0.84440   1.000
    N34     N    0.10621   0.91368   0.76298   1.000
    N35     N    0.14379   0.16368   0.01298   1.000
    N36     N    0.35621   0.33632   0.01298   1.000
    N37     N    0.39379   0.08633   0.26298   1.000
    N38     N    0.60621   0.91368   0.26298   1.000
    N39     N    0.64379   0.16368   0.51298   1.000
    N40     N    0.85621   0.33632   0.51298   1.000
    N41     N    0.89379   0.58633   0.26298   1.000
    N42     N    0.10621   0.41367   0.26298   1.000
    N43     N    0.14379   0.66368   0.51298   1.000
    N44     N    0.35621   0.83633   0.51298   1.000
    N45     N    0.39379   0.58633   0.76298   1.000
    N46     N    0.60621   0.41368   0.76298   1.000
    N47     N    0.64379   0.66368   0.01298   1.000
    N48     N    0.85621   0.83633   0.01298   1.000
    N49     N    0.10811   0.92521   0.51406   1.000
    N50     N    0.14189   0.17521   0.76406   1.000
    N51     N    0.35811   0.32479   0.76406   1.000
    N52     N    0.39189   0.07479   0.01406   1.000
    N53     N    0.60811   0.92521   0.01406   1.000
    N54     N    0.64189   0.17521   0.26406   1.000
    N55     N    0.05880   0.08970   0.59440   1.000
    N56     N    0.05063   0.07255   0.69762   1.000
    N57     N    0.99517   0.42430   0.65143   1.000
    N58     N    0.14186   0.15797   0.50343   1.000
    N59     N    0.60814   0.90797   0.75343   1.000
    N60     N    0.39186   0.09203   0.75343   1.000
    N61     N    0.85814   0.34203   0.00343   1.000
    N62     N    0.64186   0.15797   0.00343   1.000
    N63     N    0.85811   0.32479   0.26406   1.000
    N64     N    0.89189   0.57479   0.01406   1.000
    N65     N    0.10811   0.42521   0.01406   1.000
    N66     N    0.14189   0.67521   0.26406   1.000
    N67     N    0.35811   0.82479   0.26406   1.000
    N68     N    0.39189   0.57479   0.51406   1.000
    N69     N    0.60811   0.42521   0.51406   1.000
    N70     N    0.64189   0.67521   0.76406   1.000
    N71     N    0.85811   0.82479   0.76406   1.000
    N72     N    0.89341   0.60292   0.48941   1.000
    N73     N    0.89341   0.10293   0.98941   1.000
    N74     N    0.35659   0.35292   0.23941   1.000
    N75     N    0.14341   0.14707   0.23941   1.000
    N76     N    0.60659   0.89708   0.48941   1.000
    N77     N    0.39341   0.10293   0.48941   1.000
    N78     N    0.85659   0.35293   0.73941   1.000
    N79     N    0.64341   0.14707   0.73941   1.000
    N80     N    0.99910   0.77901   0.37957   1.000
    N81     N    0.25090   0.02901   0.62957   1.000
    N82     N    0.24910   0.47099   0.62957   1.000
    N83     N    0.50090   0.22099   0.87957   1.000
    N84     N    0.49910   0.77901   0.87957   1.000
    N85     N    0.75090   0.02901   0.12957   1.000
    N86     N    0.74910   0.47099   0.12957   1.000
    N87     N    0.00090   0.72099   0.87957   1.000
    N88     N    0.99910   0.27901   0.87957   1.000
    N89     N    0.25090   0.52901   0.12957   1.000
    N90     N    0.24910   0.97099   0.12957   1.000
    N91     N    0.50090   0.72099   0.37957   1.000
    N92     N    0.49910   0.27901   0.37957   1.000
    N93     N    0.75090   0.52901   0.62957   1.000
    N94     N    0.74910   0.97099   0.62957   1.000
    N95     N    0.04763   0.58760   0.54850   1.000
    N96     N    0.20237   0.83760   0.79850   1.000
    N97     N    0.29763   0.66240   0.79850   1.000
    N98     N    0.45237   0.41240   0.04850   1.000
    N99     N    0.54763   0.58760   0.04850   1.000
    N100    N    0.70237   0.83760   0.29850   1.000
    N101    N    0.79763   0.66240   0.29850   1.000
    N102    N    0.95237   0.91240   0.04850   1.000
    N103    N    0.04763   0.08760   0.04850   1.000
    N104    N    0.20237   0.33760   0.29850   1.000
    N105    N    0.29763   0.16240   0.29850   1.000
    N106    N    0.45237   0.91240   0.54850   1.000
    N107    N    0.54763   0.08760   0.54850   1.000
    N108    N    0.70237   0.33760   0.79850   1.000
    N109    N    0.79763   0.16240   0.79850   1.000
    N110    N    0.94120   0.91030   0.59440   1.000
    N111    N    0.30880   0.16030   0.84440   1.000
    N112    N    0.19120   0.33970   0.84440   1.000
    N113    N    0.55880   0.08970   0.09440   1.000
    N114    N    0.44120   0.91030   0.09440   1.000
    N115    N    0.80880   0.16030   0.34440   1.000
    N116    N    0.69120   0.33970   0.34440   1.000
    N117    N    0.05880   0.58970   0.09440   1.000
    N118    N    0.94120   0.41030   0.09440   1.000
    N119    N    0.30880   0.66030   0.34440   1.000
    N120    N    0.19120   0.83970   0.34440   1.000
    N121    N    0.00483   0.57570   0.65143   1.000
    N122    N    0.24517   0.82570   0.90143   1.000
    N123    N    0.25483   0.67430   0.90143   1.000
    N124    N    0.49517   0.42430   0.15143   1.000
    N125    N    0.50483   0.57570   0.15143   1.000
    N126    N    0.74517   0.82570   0.40143   1.000
    N127    N    0.75483   0.67430   0.40143   1.000
    N128    N    0.99517   0.92430   0.15143   1.000
    N129    N    0.00483   0.07570   0.15143   1.000
    N130    N    0.24517   0.32570   0.40143   1.000
    N131    N    0.25483   0.17430   0.40143   1.000
    N132    N    0.49517   0.92430   0.65143   1.000
    N133    N    0.50483   0.07570   0.65143   1.000
    N134    N    0.74517   0.32570   0.90143   1.000
    N135    N    0.75483   0.17430   0.90143   1.000
    N136    N    0.94937   0.92745   0.69762   1.000
    N137    N    0.30063   0.17745   0.94762   1.000
    N138    N    0.19937   0.32255   0.94762   1.000
    N139    N    0.55063   0.07255   0.19762   1.000
    N140    N    0.44937   0.92745   0.19762   1.000
    N141    N    0.80063   0.17745   0.44762   1.000
    N142    N    0.69937   0.32255   0.44762   1.000
    N143    N    0.05063   0.57255   0.19762   1.000
    N144    N    0.94937   0.42745   0.19762   1.000
    N145    N    0.30063   0.67745   0.44762   1.000
    N146    N    0.19937   0.82255   0.44762   1.000
    N147    N    0.55063   0.57255   0.69762   1.000
    N148    N    0.44937   0.42745   0.69762   1.000
    N149    N    0.80063   0.67745   0.94762   1.000
    N150    N    0.69937   0.82255   0.94762   1.000
    N151    N    0.08776   0.80238   0.39826   1.000
    N152    N    0.16224   0.05238   0.64826   1.000
    N153    N    0.33776   0.44762   0.64826   1.000
    N154    N    0.41224   0.19762   0.89826   1.000
    N155    N    0.58776   0.80238   0.89826   1.000
    N156    N    0.66224   0.05238   0.14826   1.000
    N157    N    0.83776   0.44762   0.14826   1.000
    N158    N    0.91224   0.69762   0.89826   1.000
    N159    N    0.08776   0.30238   0.89826   1.000
    N160    N    0.16224   0.55238   0.14826   1.000
    N161    N    0.33776   0.94762   0.14826   1.000
    N162    N    0.41224   0.69762   0.39826   1.000
    N163    N    0.58776   0.30238   0.39826   1.000
    N164    N    0.66224   0.55238   0.64826   1.000
    N165    N    0.83776   0.94762   0.64826   1.000
    N166    N    0.33326   0.98446   0.60254   1.000
    N167    N    0.16674   0.51554   0.60254   1.000
    N168    N    0.83326   0.48446   0.60254   1.000
    N169    N    0.66674   0.01554   0.60254   1.000
    N170    N    0.07333   0.02520   0.37783   1.000
    N171    N    0.17667   0.27520   0.62783   1.000
    N172    N    0.32333   0.22480   0.62783   1.000
    N173    N    0.42667   0.97480   0.87783   1.000
    N174    N    0.57333   0.02520   0.87783   1.000
    N175    N    0.67667   0.27520   0.12783   1.000
    N176    N    0.82333   0.22480   0.12783   1.000
    N177    N    0.92667   0.47480   0.87783   1.000
    N178    N    0.07333   0.52520   0.87783   1.000
    N179    N    0.17667   0.77520   0.12783   1.000
    N180    N    0.32333   0.72480   0.12783   1.000
    N181    N    0.42667   0.47480   0.37783   1.000
    N182    N    0.57333   0.52520   0.37783   1.000
    N183    N    0.67667   0.77520   0.62783   1.000
    N184    N    0.82333   0.72480   0.62783   1.000
    N185    N    0.08326   0.76554   0.85254   1.000
    N186    N    0.16674   0.01554   0.10254   1.000
    N187    N    0.33326   0.48446   0.10254   1.000
    N188    N    0.41674   0.23446   0.35254   1.000
    N189    N    0.58326   0.76554   0.35254   1.000
    N190    N    0.91674   0.73446   0.35254   1.000
    N191    N    0.08326   0.26554   0.35254   1.000
    N192    N    0.41674   0.73446   0.85254   1.000
    N193    N    0.58326   0.26554   0.85254   1.000
    N194    N    0.66674   0.51554   0.10254   1.000
    N195    N    0.83326   0.98446   0.10254   1.000
    N196    N    0.97825   0.91835   0.46390   1.000
    N197    N    0.27175   0.16835   0.71390   1.000
    N198    N    0.22825   0.33165   0.71390   1.000
    N199    N    0.52175   0.08165   0.96390   1.000
    N200    N    0.47825   0.91835   0.96390   1.000
    N201    N    0.77175   0.16835   0.21390   1.000
    N202    N    0.72825   0.33165   0.21390   1.000
    N203    N    0.02175   0.58165   0.96390   1.000
    N204    N    0.97825   0.41835   0.96390   1.000
    N205    N    0.27175   0.66835   0.21390   1.000
    N206    N    0.22825   0.83165   0.21390   1.000
    N207    N    0.52175   0.58165   0.46390   1.000
    N208    N    0.47825   0.41835   0.46390   1.000
    N209    N    0.77175   0.66835   0.71390   1.000
    N210    N    0.72825   0.83165   0.71390   1.000
    N211    N    0.25000   0.75000   0.02851   1.000
    N212    N    0.50000   0.50000   0.27851   1.000
    N213    N    0.75000   0.75000   0.52851   1.000
    N214    N    0.00000   0.00000   0.27851   1.000
    N215    N    0.25000   0.25000   0.52851   1.000
    N216    N    0.50000   0.00000   0.77851   1.000
    N217    N    0.75000   0.25000   0.02851   1.000
    N218    N    0.00040   0.60750   0.40850   1.000
    N219    N    0.24960   0.85750   0.65850   1.000
    N220    N    0.25040   0.64250   0.65850   1.000
    N221    N    0.49960   0.39250   0.90850   1.000
    N222    N    0.50040   0.60750   0.90850   1.000
    N223    N    0.74960   0.85750   0.15850   1.000
    N224    N    0.75040   0.64250   0.15850   1.000
    N225    N    0.99960   0.89250   0.90850   1.000
    N226    N    0.00040   0.10750   0.90850   1.000
    N227    N    0.24960   0.35750   0.15850   1.000
    N228    N    0.25040   0.14250   0.15850   1.000
    N229    N    0.49960   0.89250   0.40850   1.000
    N230    N    0.50040   0.10750   0.40850   1.000
    N231    N    0.74960   0.35750   0.65850   1.000
    N232    N    0.75040   0.14250   0.65850   1.000
    N233    N    0.06250   0.60350   0.39450   1.000
    N234    N    0.18750   0.85350   0.64450   1.000
    N235    N    0.31250   0.64650   0.64450   1.000
    N236    N    0.43750   0.39650   0.89450   1.000
    N237    N    0.56250   0.60350   0.89450   1.000
    N238    N    0.68750   0.85350   0.14450   1.000
    N239    N    0.81250   0.64650   0.14450   1.000
    N240    N    0.93750   0.89650   0.89450   1.000
    N241    N    0.06250   0.10350   0.89450   1.000
    N242    N    0.18750   0.35350   0.14450   1.000
    N243    N    0.31250   0.14650   0.14450   1.000
    N244    N    0.43750   0.89650   0.39450   1.000
    N245    N    0.56250   0.10350   0.39450   1.000
    N246    N    0.68750   0.35350   0.64450   1.000
    N247    N    0.81250   0.14650   0.64450   1.000
    Zr248   Zr   0.99933   0.24567   0.62985   1.000
    O249    O    0.01779   0.17899   0.66549   1.000
    O250    O    0.04500   0.21519   0.68510   1.000
    O251    O    0.00204   0.24491   0.71929   1.000
    O252    O    0.97086   0.18633   0.68466   1.000
    O253    O    0.99730   0.24896   0.54026   1.000
    O254    O    0.95359   0.28248   0.57982   1.000
    O255    O    0.98275   0.31105   0.59082   1.000
    O256    O    0.02855   0.30212   0.57256   1.000
    O257    O    0.95588   0.19215   0.67076   1.000
    O258    O    0.94390   0.26570   0.59516   1.000
    O259    O    0.94405   0.27143   0.66332   1.000
    O260    O    0.95527   0.18771   0.59681   1.000
    O261    O    0.05474   0.23122   0.66921   1.000
    O262    O    0.04397   0.30130   0.66513   1.000
    O263    O    0.05476   0.22528   0.59216   1.000
    O264    O    0.04345   0.29694   0.58687   1.000
    O265    O    0.97023   0.17800   0.58505   1.000
    O266    O    0.01983   0.17886   0.60808   1.000
    O267    O    0.00251   0.22236   0.54375   1.000
    O268    O    0.04502   0.20554   0.58049   1.000
    O269    O    0.99346   0.31862   0.64741   1.000
    O270    O    0.95369   0.29221   0.67372   1.000
    O271    O    0.99662   0.27122   0.71553   1.000
    O272    O    0.02907   0.31041   0.67755   1.000
    Zr273   Zr   0.92920   0.98990   0.88270   1.000
    Zr274   Zr   0.00000   0.00000   0.49470   1.000
    Zr275   Zr   0.74932   0.00433   0.37985   1.000
    O276    O    0.75251   0.02764   0.29375   1.000
    O277    O    0.76983   0.07114   0.35808   1.000
    O278    O    0.72023   0.07200   0.33505   1.000
    O279    O    0.79502   0.04446   0.33049   1.000
    O280    O    0.80476   0.02472   0.34216   1.000
    O281    O    0.79397   0.94870   0.41513   1.000
    O282    O    0.79345   0.95306   0.33687   1.000
    O283    O    0.80474   0.01878   0.41921   1.000
    O284    O    0.75204   0.00509   0.46929   1.000
    O285    O    0.76779   0.07101   0.41549   1.000
    O286    O    0.72086   0.06367   0.43466   1.000
    O287    O    0.79500   0.03481   0.43510   1.000
    O288    O    0.70359   0.96752   0.32982   1.000
    O289    O    0.73275   0.93895   0.34082   1.000
    O290    O    0.77855   0.94788   0.32256   1.000
    O291    O    0.74730   0.00104   0.29026   1.000
    O292    O    0.69390   0.98430   0.34516   1.000
    O293    O    0.70588   0.05785   0.42076   1.000
    O294    O    0.69405   0.97857   0.41332   1.000
    O295    O    0.70527   0.06229   0.34681   1.000
    O296    O    0.77907   0.93959   0.42755   1.000
    O297    O    0.70369   0.95779   0.42372   1.000
    O298    O    0.74662   0.97878   0.46553   1.000
    O299    O    0.74346   0.93138   0.39741   1.000
    Zr300   Zr   0.75068   0.49567   0.37985   1.000
    O301    O    0.77977   0.42800   0.33505   1.000
    O302    O    0.70498   0.45554   0.33049   1.000
    O303    O    0.74749   0.47236   0.29375   1.000
    O304    O    0.73017   0.42886   0.35808   1.000
    O305    O    0.70655   0.54694   0.33687   1.000
    O306    O    0.70604   0.55130   0.41513   1.000
    O307    O    0.69524   0.47528   0.34216   1.000
    O308    O    0.69526   0.48122   0.41921   1.000
    O309    O    0.77914   0.43633   0.43466   1.000
    O310    O    0.70500   0.46519   0.43510   1.000
    O311    O    0.73221   0.42899   0.41549   1.000
    O312    O    0.74796   0.49491   0.46929   1.000
    O313    O    0.79641   0.53248   0.32982   1.000
    O314    O    0.72145   0.55212   0.32256   1.000
    O315    O    0.76725   0.56105   0.34082   1.000
    O316    O    0.75270   0.49896   0.29026   1.000
    O317    O    0.79412   0.44215   0.42076   1.000
    O318    O    0.80610   0.51570   0.34516   1.000
    O319    O    0.80595   0.52143   0.41332   1.000
    O320    O    0.79473   0.43771   0.34681   1.000
    O321    O    0.75338   0.52122   0.46553   1.000
    O322    O    0.72093   0.56041   0.42755   1.000
    O323    O    0.75654   0.56862   0.39741   1.000
    O324    O    0.79631   0.54221   0.42372   1.000
    Zr325   Zr   0.99933   0.74567   0.12985   1.000
    O326    O    0.04502   0.70554   0.08049   1.000
    O327    O    0.00251   0.72236   0.04375   1.000
    O328    O    0.01983   0.67886   0.10808   1.000
    O329    O    0.97023   0.67800   0.08505   1.000
    O330    O    0.05476   0.72528   0.09216   1.000
    O331    O    0.05474   0.73122   0.16921   1.000
    O332    O    0.04397   0.80130   0.16513   1.000
    O333    O    0.04345   0.79694   0.08687   1.000
    O334    O    0.97086   0.68633   0.18466   1.000
    O335    O    0.00204   0.74491   0.21929   1.000
    O336    O    0.01779   0.67899   0.16549   1.000
    O337    O    0.04500   0.71519   0.18510   1.000
    O338    O    0.95359   0.78248   0.07982   1.000
    O339    O    0.99730   0.74896   0.04026   1.000
    O340    O    0.98275   0.81105   0.09082   1.000
    O341    O    0.02855   0.80212   0.07256   1.000
    O342    O    0.94390   0.76570   0.09516   1.000
    O343    O    0.94405   0.77143   0.16332   1.000
    O344    O    0.95527   0.68771   0.09681   1.000
    O345    O    0.95588   0.69215   0.17076   1.000
    O346    O    0.95369   0.79221   0.17372   1.000
    O347    O    0.02907   0.81041   0.17755   1.000
    O348    O    0.99346   0.81862   0.14741   1.000
    O349    O    0.99662   0.77122   0.21553   1.000
    Zr350   Zr   0.00067   0.25433   0.12985   1.000
    O351    O    0.99749   0.27764   0.04375   1.000
    O352    O    0.98017   0.32114   0.10808   1.000
    O353    O    0.95498   0.29446   0.08049   1.000
    O354    O    0.02977   0.32200   0.08505   1.000
    O355    O    0.94524   0.27472   0.09216   1.000
    O356    O    0.94526   0.26878   0.16921   1.000
    O357    O    0.95604   0.19870   0.16513   1.000
    O358    O    0.95655   0.20306   0.08687   1.000
    O359    O    0.02914   0.31367   0.18466   1.000
    O360    O    0.95500   0.28481   0.18510   1.000
    O361    O    0.98221   0.32101   0.16549   1.000
    O362    O    0.99796   0.25509   0.21929   1.000
    O363    O    0.04641   0.21752   0.07982   1.000
    O364    O    0.01725   0.18895   0.09082   1.000
    O365    O    0.00270   0.25104   0.04026   1.000
    O366    O    0.97145   0.19788   0.07256   1.000
    O367    O    0.05610   0.23430   0.09516   1.000
    O368    O    0.05595   0.22857   0.16332   1.000
    O369    O    0.04473   0.31229   0.09681   1.000
    O370    O    0.04412   0.30785   0.17076   1.000
    O371    O    0.97093   0.18959   0.17755   1.000
    O372    O    0.04631   0.20779   0.17372   1.000
    O373    O    0.00654   0.18138   0.14741   1.000
    O374    O    0.00338   0.22878   0.21553   1.000
    Zr375   Zr   0.24932   0.50433   0.37985   1.000
    O376    O    0.29502   0.54446   0.33049   1.000
    O377    O    0.25251   0.52764   0.29375   1.000
    O378    O    0.26983   0.57114   0.35808   1.000
    O379    O    0.22023   0.57200   0.33505   1.000
    O380    O    0.30476   0.52472   0.34216   1.000
    O381    O    0.29345   0.45306   0.33687   1.000
    O382    O    0.30474   0.51878   0.41921   1.000
    O383    O    0.29397   0.44870   0.41513   1.000
    O384    O    0.29500   0.53481   0.43510   1.000
    O385    O    0.25204   0.50509   0.46929   1.000
    O386    O    0.26779   0.57101   0.41549   1.000
    O387    O    0.22086   0.56367   0.43466   1.000
    O388    O    0.20359   0.46752   0.32982   1.000
    O389    O    0.23275   0.43895   0.34082   1.000
    O390    O    0.24730   0.50104   0.29026   1.000
    O391    O    0.27855   0.44788   0.32256   1.000
    O392    O    0.20527   0.56229   0.34681   1.000
    O393    O    0.19390   0.48430   0.34516   1.000
    O394    O    0.20588   0.55785   0.42076   1.000
    O395    O    0.19405   0.47857   0.41332   1.000
    O396    O    0.24662   0.47878   0.46553   1.000
    O397    O    0.24346   0.43138   0.39741   1.000
    O398    O    0.27907   0.43959   0.42755   1.000
    O399    O    0.20369   0.45779   0.42372   1.000
    Zr400   Zr   0.25067   0.99567   0.37985   1.000
    O401    O    0.20498   0.95554   0.33049   1.000
    O402    O    0.24749   0.97236   0.29375   1.000
    O403    O    0.27977   0.92800   0.33505   1.000
    O404    O    0.23017   0.92886   0.35808   1.000
    O405    O    0.19524   0.97528   0.34216   1.000
    O406    O    0.19526   0.98122   0.41921   1.000
    O407    O    0.20655   0.04694   0.33687   1.000
    O408    O    0.20603   0.05130   0.41513   1.000
    O409    O    0.20500   0.96519   0.43510   1.000
    O410    O    0.27914   0.93633   0.43466   1.000
    O411    O    0.23221   0.92899   0.41549   1.000
    O412    O    0.24796   0.99491   0.46929   1.000
    O413    O    0.29641   0.03248   0.32982   1.000
    O414    O    0.26725   0.06105   0.34082   1.000
    O415    O    0.25270   0.99896   0.29026   1.000
    O416    O    0.22145   0.05212   0.32256   1.000
    O417    O    0.29412   0.94215   0.42076   1.000
    O418    O    0.30595   0.02143   0.41332   1.000
    O419    O    0.29473   0.93771   0.34681   1.000
    O420    O    0.30610   0.01570   0.34516   1.000
    O421    O    0.29631   0.04221   0.42372   1.000
    O422    O    0.22093   0.06041   0.42755   1.000
    O423    O    0.25338   0.02122   0.46553   1.000
    O424    O    0.25654   0.06862   0.39741   1.000
    Zr425   Zr   0.49932   0.74567   0.62985   1.000
    O426    O    0.51983   0.67886   0.60808   1.000
    O427    O    0.50251   0.72236   0.54375   1.000
    O428    O    0.54502   0.70554   0.58049   1.000
    O429    O    0.47023   0.67800   0.58505   1.000
    O430    O    0.55476   0.72528   0.59216   1.000
    O431    O    0.54345   0.79694   0.58687   1.000
    O432    O    0.55474   0.73122   0.66921   1.000
    O433    O    0.54397   0.80130   0.66513   1.000
    O434    O    0.54500   0.71519   0.68510   1.000
    O435    O    0.51779   0.67899   0.66549   1.000
    O436    O    0.47086   0.68633   0.68466   1.000
    O437    O    0.50204   0.74491   0.71929   1.000
    O438    O    0.45359   0.78248   0.57982   1.000
    O439    O    0.48275   0.81105   0.59082   1.000
    O440    O    0.49730   0.74896   0.54026   1.000
    O441    O    0.52855   0.80212   0.57256   1.000
    O442    O    0.45588   0.69215   0.67076   1.000
    O443    O    0.44390   0.76570   0.59516   1.000
    O444    O    0.45527   0.68771   0.59681   1.000
    O445    O    0.44405   0.77143   0.66332   1.000
    O446    O    0.52907   0.81041   0.67755   1.000
    O447    O    0.49662   0.77122   0.71553   1.000
    O448    O    0.49346   0.81862   0.64741   1.000
    O449    O    0.45369   0.79221   0.67372   1.000
    Zr450   Zr   0.50067   0.25433   0.62985   1.000
    O451    O    0.49749   0.27764   0.54375   1.000
    O452    O    0.45498   0.29446   0.58049   1.000
    O453    O    0.52977   0.32200   0.58505   1.000
    O454    O    0.48017   0.32114   0.60808   1.000
    O455    O    0.45655   0.20306   0.58687   1.000
    O456    O    0.44526   0.26878   0.66921   1.000
    O457    O    0.45603   0.19870   0.66513   1.000
    O458    O    0.44524   0.27472   0.59216   1.000
    O459    O    0.45500   0.28481   0.68510   1.000
    O460    O    0.49796   0.25509   0.71929   1.000
    O461    O    0.48221   0.32101   0.66549   1.000
    O462    O    0.52914   0.31367   0.68466   1.000
    O463    O    0.54641   0.21752   0.57982   1.000
    O464    O    0.47145   0.19788   0.57256   1.000
    O465    O    0.50270   0.25104   0.54026   1.000
    O466    O    0.51725   0.18895   0.59082   1.000
    O467    O    0.55610   0.23430   0.59516   1.000
    O468    O    0.54412   0.30785   0.67076   1.000
    O469    O    0.55595   0.22857   0.66332   1.000
    O470    O    0.54473   0.31229   0.59681   1.000
    O471    O    0.54631   0.20779   0.67372   1.000
    O472    O    0.50338   0.22878   0.71553   1.000
    O473    O    0.47093   0.18959   0.67755   1.000
    O474    O    0.50654   0.18138   0.64741   1.000
    Zr475   Zr   0.25067   0.49567   0.87985   1.000
    O476    O    0.19524   0.47528   0.84216   1.000
    O477    O    0.20655   0.54694   0.83687   1.000
    O478    O    0.19526   0.48122   0.91921   1.000
    O479    O    0.20604   0.55130   0.91513   1.000
    O480    O    0.27914   0.43633   0.93466   1.000
    O481    O    0.24796   0.49491   0.96929   1.000
    O482    O    0.20500   0.46519   0.93510   1.000
    O483    O    0.23221   0.42899   0.91549   1.000
    O484    O    0.22145   0.55212   0.82256   1.000
    O485    O    0.25270   0.49896   0.79026   1.000
    O486    O    0.26725   0.56105   0.84082   1.000
    O487    O    0.29641   0.53248   0.82982   1.000
    O488    O    0.30595   0.52143   0.91332   1.000
    O489    O    0.29473   0.43771   0.84681   1.000
    O490    O    0.29412   0.44215   0.92076   1.000
    O491    O    0.30610   0.51570   0.84516   1.000
    O492    O    0.22093   0.56041   0.92755   1.000
    O493    O    0.25338   0.52122   0.96553   1.000
    O494    O    0.29631   0.54221   0.92372   1.000
    O495    O    0.25654   0.56862   0.89741   1.000
    O496    O    0.27977   0.42800   0.83505   1.000
    O497    O    0.24749   0.47236   0.79375   1.000
    O498    O    0.23017   0.42886   0.85808   1.000
    O499    O    0.20498   0.45554   0.83049   1.000
    Zr500   Zr   0.49932   0.24567   0.12985   1.000
    O501    O    0.54345   0.29694   0.08687   1.000
    O502    O    0.55474   0.23122   0.16921   1.000
    O503    O    0.54397   0.30130   0.16513   1.000
    O504    O    0.55476   0.22528   0.09216   1.000
    O505    O    0.50204   0.24491   0.21929   1.000
    O506    O    0.54500   0.21519   0.18510   1.000
    O507    O    0.47086   0.18633   0.18466   1.000
    O508    O    0.51779   0.17899   0.16549   1.000
    O509    O    0.52855   0.30212   0.07256   1.000
    O510    O    0.49730   0.24896   0.04026   1.000
    O511    O    0.45359   0.28248   0.07982   1.000
    O512    O    0.48275   0.31105   0.09082   1.000
    O513    O    0.45588   0.19215   0.17076   1.000
    O514    O    0.45527   0.18771   0.09681   1.000
    O515    O    0.44390   0.26570   0.09516   1.000
    O516    O    0.44405   0.27143   0.16332   1.000
    O517    O    0.52907   0.31041   0.17755   1.000
    O518    O    0.49662   0.27122   0.21553   1.000
    O519    O    0.45369   0.29221   0.17372   1.000
    O520    O    0.49346   0.31862   0.14741   1.000
    O521    O    0.50251   0.22236   0.04375   1.000
    O522    O    0.54502   0.20554   0.08049   1.000
    O523    O    0.47023   0.17800   0.08505   1.000
    O524    O    0.51983   0.17886   0.10808   1.000
    Zr525   Zr   0.50067   0.75433   0.12985   1.000
    O526    O    0.45655   0.70306   0.08687   1.000
    O527    O    0.44524   0.77472   0.09216   1.000
    O528    O    0.45603   0.69870   0.16513   1.000
    O529    O    0.44526   0.76878   0.16921   1.000
    O530    O    0.45500   0.78481   0.18510   1.000
    O531    O    0.52914   0.81367   0.18466   1.000
    O532    O    0.49796   0.75509   0.21929   1.000
    O533    O    0.48221   0.82101   0.16549   1.000
    O534    O    0.54641   0.71752   0.07982   1.000
    O535    O    0.50270   0.75104   0.04026   1.000
    O536    O    0.51725   0.68895   0.09082   1.000
    O537    O    0.47145   0.69788   0.07256   1.000
    O538    O    0.55595   0.72857   0.16332   1.000
    O539    O    0.54412   0.80785   0.17076   1.000
    O540    O    0.55610   0.73430   0.09516   1.000
    O541    O    0.54473   0.81229   0.09681   1.000
    O542    O    0.50338   0.72878   0.21553   1.000
    O543    O    0.50654   0.68138   0.14741   1.000
    O544    O    0.47093   0.68959   0.17755   1.000
    O545    O    0.54631   0.70779   0.17372   1.000
    O546    O    0.49749   0.77764   0.04375   1.000
    O547    O    0.48017   0.82114   0.10808   1.000
    O548    O    0.52977   0.82200   0.08505   1.000
    O549    O    0.45498   0.79446   0.08049   1.000
    Zr550   Zr   0.74932   0.50433   0.87985   1.000
    O551    O    0.80476   0.52472   0.84216   1.000
    O552    O    0.79397   0.44870   0.91513   1.000
    O553    O    0.80474   0.51878   0.91921   1.000
    O554    O    0.79345   0.45306   0.83687   1.000
    O555    O    0.79502   0.54446   0.83049   1.000
    O556    O    0.75251   0.52764   0.79375   1.000
    O557    O    0.72023   0.57200   0.83505   1.000
    O558    O    0.76983   0.57114   0.85808   1.000
    O559    O    0.79500   0.53481   0.93510   1.000
    O560    O    0.72086   0.56367   0.93466   1.000
    O561    O    0.76779   0.57101   0.91549   1.000
    O562    O    0.75204   0.50509   0.96929   1.000
    O563    O    0.70359   0.46752   0.82982   1.000
    O564    O    0.74730   0.50104   0.79026   1.000
    O565    O    0.77855   0.44788   0.82256   1.000
    O566    O    0.73275   0.43895   0.84082   1.000
    O567    O    0.69405   0.47857   0.91332   1.000
    O568    O    0.70527   0.56229   0.84681   1.000
    O569    O    0.70588   0.55785   0.92076   1.000
    O570    O    0.69390   0.48430   0.84516   1.000
    O571    O    0.77907   0.43959   0.92755   1.000
    O572    O    0.74662   0.47878   0.96553   1.000
    O573    O    0.70369   0.45779   0.92372   1.000
    O574    O    0.74346   0.43138   0.89741   1.000
    Zr575   Zr   0.75067   0.99567   0.87985   1.000
    O576    O    0.69524   0.97528   0.84216   1.000
    O577    O    0.70655   0.04694   0.83687   1.000
    O578    O    0.69526   0.98122   0.91921   1.000
    O579    O    0.70604   0.05130   0.91513   1.000
    O580    O    0.74749   0.97236   0.79375   1.000
    O581    O    0.70498   0.95554   0.83049   1.000
    O582    O    0.77977   0.92800   0.83505   1.000
    O583    O    0.73017   0.92886   0.85808   1.000
    O584    O    0.70500   0.96519   0.93510   1.000
    O585    O    0.74796   0.99491   0.96929   1.000
    O586    O    0.77914   0.93633   0.93466   1.000
    O587    O    0.73221   0.92899   0.91549   1.000
    O588    O    0.72145   0.05212   0.82256   1.000
    O589    O    0.75270   0.99896   0.79026   1.000
    O590    O    0.79641   0.03248   0.82982   1.000
    O591    O    0.76725   0.06105   0.84082   1.000
    O592    O    0.80610   0.01570   0.84516   1.000
    O593    O    0.79412   0.94215   0.92076   1.000
    O594    O    0.79473   0.93771   0.84681   1.000
    O595    O    0.80595   0.02143   0.91332   1.000
    O596    O    0.75338   0.02122   0.96553   1.000
    O597    O    0.79631   0.04221   0.92372   1.000
    O598    O    0.72093   0.06041   0.92755   1.000
    O599    O    0.75654   0.06862   0.89741   1.000
    Zr600   Zr   0.00067   0.75433   0.62985   1.000
    O601    O    0.95604   0.69870   0.66513   1.000
    O602    O    0.94524   0.77472   0.59216   1.000
    O603    O    0.95655   0.70306   0.58687   1.000
    O604    O    0.94526   0.76878   0.66921   1.000
    O605    O    0.95500   0.78481   0.68510   1.000
    O606    O    0.98221   0.82101   0.66549   1.000
    O607    O    0.99796   0.75509   0.71929   1.000
    O608    O    0.02914   0.81367   0.68466   1.000
    O609    O    0.01725   0.68895   0.59082   1.000
    O610    O    0.00270   0.75104   0.54026   1.000
    O611    O    0.97145   0.69788   0.57256   1.000
    O612    O    0.04641   0.71752   0.57982   1.000
    O613    O    0.05610   0.73430   0.59516   1.000
    O614    O    0.05595   0.72857   0.66332   1.000
    O615    O    0.04412   0.80785   0.67076   1.000
    O616    O    0.04473   0.81229   0.59681   1.000
    O617    O    0.00338   0.72878   0.71553   1.000
    O618    O    0.04631   0.70779   0.67372   1.000
    O619    O    0.97093   0.68959   0.67755   1.000
    O620    O    0.00654   0.68138   0.64741   1.000
    O621    O    0.95498   0.79446   0.58049   1.000
    O622    O    0.99749   0.77764   0.54375   1.000
    O623    O    0.98017   0.82114   0.60808   1.000
    O624    O    0.02977   0.82200   0.58505   1.000
    Zr625   Zr   0.24933   0.00433   0.87985   1.000
    O626    O    0.29345   0.95306   0.83687   1.000
    O627    O    0.29397   0.94870   0.91513   1.000
    O628    O    0.30474   0.01878   0.91921   1.000
    O629    O    0.30476   0.02472   0.84216   1.000
    O630    O    0.22086   0.06367   0.93466   1.000
    O631    O    0.25204   0.00509   0.96929   1.000
    O632    O    0.26779   0.07101   0.91549   1.000
    O633    O    0.29500   0.03481   0.93510   1.000
    O634    O    0.27855   0.94788   0.82256   1.000
    O635    O    0.20359   0.96752   0.82982   1.000
    O636    O    0.24730   0.00104   0.79026   1.000
    O637    O    0.23275   0.93895   0.84082   1.000
    O638    O    0.20527   0.06229   0.84681   1.000
    O639    O    0.20588   0.05785   0.92076   1.000
    O640    O    0.19405   0.97857   0.91332   1.000
    O641    O    0.19390   0.98430   0.84516   1.000
    O642    O    0.27907   0.93959   0.92755   1.000
    O643    O    0.20369   0.95779   0.92372   1.000
    O644    O    0.24662   0.97878   0.96553   1.000
    O645    O    0.24346   0.93138   0.89741   1.000
    O646    O    0.29502   0.04446   0.83049   1.000
    O647    O    0.22023   0.07200   0.83505   1.000
    O648    O    0.26983   0.07114   0.85808   1.000
    O649    O    0.25251   0.02764   0.79375   1.000
    Zr650   Zr   0.00270   0.04240   0.78090   1.000
    Zr651   Zr   0.07080   0.01010   0.88270   1.000
    Zr652   Zr   0.17920   0.26010   0.13270   1.000
    Zr653   Zr   0.32080   0.23990   0.13270   1.000
    Zr654   Zr   0.42920   0.98990   0.38270   1.000
    Zr655   Zr   0.57080   0.01010   0.38270   1.000
    Zr656   Zr   0.67920   0.26010   0.63270   1.000
    Zr657   Zr   0.82080   0.23990   0.63270   1.000
    Zr658   Zr   0.92920   0.48990   0.38270   1.000
    Zr659   Zr   0.07080   0.51010   0.38270   1.000
    Zr660   Zr   0.17920   0.76010   0.63270   1.000
    Zr661   Zr   0.32080   0.73990   0.63270   1.000
    Zr662   Zr   0.42920   0.48990   0.88270   1.000
    Zr663   Zr   0.57080   0.51010   0.88270   1.000
    Zr664   Zr   0.67920   0.76010   0.13270   1.000
    Zr665   Zr   0.82080   0.73990   0.13270   1.000
    Zr666   Zr   0.25000   0.25000   0.74470   1.000
    Zr667   Zr   0.50000   0.00000   0.99470   1.000
    Zr668   Zr   0.75000   0.25000   0.24470   1.000
    Zr669   Zr   0.00000   0.50000   0.99470   1.000
    Zr670   Zr   0.25000   0.75000   0.24470   1.000
    Zr671   Zr   0.50000   0.50000   0.49470   1.000
    Zr672   Zr   0.75000   0.75000   0.74470   1.000
    Zr673   Zr   0.99730   0.95760   0.78090   1.000
    Zr674   Zr   0.25270   0.20760   0.03090   1.000
    Zr675   Zr   0.24730   0.29240   0.03090   1.000
    Zr676   Zr   0.50270   0.04240   0.28090   1.000
    Zr677   Zr   0.49730   0.95760   0.28090   1.000
    Zr678   Zr   0.75270   0.20760   0.53090   1.000
    Zr679   Zr   0.74730   0.29240   0.53090   1.000
    Zr680   Zr   0.00270   0.54240   0.28090   1.000
    Zr681   Zr   0.99730   0.45760   0.28090   1.000
    Zr682   Zr   0.25270   0.70760   0.53090   1.000
    Zr683   Zr   0.24730   0.79240   0.53090   1.000
    Zr684   Zr   0.50270   0.54240   0.78090   1.000
    Zr685   Zr   0.49730   0.45760   0.78090   1.000
    Zr686   Zr   0.75270   0.70760   0.03090   1.000
    Zr687   Zr   0.74730   0.79240   0.03090   1.000
loop_
    _geom_bond_atom_site_label_1
    _geom_bond_atom_site_label_2
    _geom_bond_distance
    _geom_bond_site_symmetry_2
    _ccdc_geom_bond_type
    Zr248  O249      2.12670  1_655   S
    N56    O249      3.18273      .   S
    Zr248  O250      2.49241  1_655   S
    N50    O250      4.51349      .   S
    Zr248  O251      2.49667  1_655   S
    N88    O251      4.55822  1_655   S
    Zr248  O252      2.44268      .   S
    N3     O252      4.54718      .   S
    Zr248  O253      2.50095      .   S
    N1     O253      4.54228  1_455   S
    Zr248  O254      2.46598      .   S
    N40    O254      4.47515      .   S
    Zr248  O255      2.12142      .   S
    N6     O255      3.12521      .   S
    Zr248  O256      2.45419  1_655   S
    N0     O256      4.56619      .   S
    Zr248  O257      2.47867      .   S
    N3     O257      4.48618      .   S
    Zr248  O258      2.43595      .   S
    N40    O258      4.52299      .   S
    Zr248  O259      2.45368      .   S
    N78    O259      4.55697      .   S
    Zr248  O260      2.47156      .   S
    N5     O260      4.48743      .   S
    Zr248  O261      2.46372  1_655   S
    N50    O261      4.56109      .   S
    Zr248  O262      2.47550  1_655   S
    N2     O262      4.48346      .   S
    Zr248  O263      2.47257  1_655   S
    N58    O263      4.56745      .   S
    Zr248  O264      2.49223  1_655   S
    N0     O264      4.50642      .   S
    Zr248  O265      2.44201      .   S
    N5     O265      4.53555      .   S
    Zr248  O266      2.00913  1_655   S
    N55    O266      2.80419      .   S
    Zr248  O267      2.47957  1_655   S
    N1     O267      4.57918      .   S
    Zr248  O268      2.48930  1_655   S
    N58    O268      4.53633      .   S
    Zr248  O269      1.97360      .   S
    N57    O269      2.75269      .   S
    Zr248  O270      2.48347      .   S
    N78    O270      4.51154      .   S
    Zr248  O271      2.48233      .   S
    N88    O271      4.58012      .   S
    Zr248  O272      2.44295  1_655   S
    N2     O272      4.53186      .   S
    Zr275  O276      2.47957      .   S
    N85    O276      4.57918      .   S
    Zr275  O277      2.00913      .   S
    N115   O277      2.80419      .   S
    Zr275  O278      2.44201      .   S
    N54    O278      4.53555      .   S
    Zr275  O279      2.48930      .   S
    N28    O279      4.53633      .   S
    Zr275  O280      2.47257      .   S
    N28    O280      4.56745      .   S
    Zr275  O281      2.47550  1_545   S
    N25    O281      4.48346      .   S
    Zr275  O282      2.49223  1_545   S
    N17    O282      4.50642      .   S
    Zr275  O283      2.46372      .   S
    N5     O283      4.56109      .   S
    Zr275  O284      2.49667      .   S
    N94    O284      4.55822  1_565   S
    Zr275  O285      2.12670      .   S
    N141   O285      3.18273      .   S
    Zr275  O286      2.44268      .   S
    N39    O286      4.54718      .   S
    Zr275  O287      2.49241      .   S
    N5     O287      4.51349      .   S
    Zr275  O288      2.46598  1_545   S
    N38    O288      4.47515      .   S
    Zr275  O289      2.12142  1_545   S
    N100   O289      3.12521      .   S
    Zr275  O290      2.45419  1_545   S
    N17    O290      4.56619      .   S
    Zr275  O291      2.50095      .   S
    N85    O291      4.54228      .   S
    Zr275  O292      2.43595  1_545   S
    N38    O292      4.52299      .   S
    Zr275  O293      2.47867      .   S
    N39    O293      4.48618      .   S
    Zr275  O294      2.45368  1_545   S
    N76    O294      4.55697      .   S
    Zr275  O295      2.47156      .   S
    N54    O295      4.48743      .   S
    Zr275  O296      2.44295  1_545   S
    N25    O296      4.53186      .   S
    Zr275  O297      2.48347  1_545   S
    N76    O297      4.51154      .   S
    Zr275  O298      2.48233  1_545   S
    N94    O298      4.58012      .   S
    Zr275  O299      1.97360  1_545   S
    N126   O299      2.75269      .   S
    Zr300  O301      2.44201      .   S
    N63    O301      4.53555      .   S
    Zr300  O302      2.48930      .   S
    N23    O302      4.53633      .   S
    Zr300  O303      2.47957      .   S
    N86    O303      4.57918      .   S
    Zr300  O304      2.00913      .   S
    N116   O304      2.80419      .   S
    Zr300  O305      2.49223      .   S
    N18    O305      4.50642      .   S
    Zr300  O306      2.47550      .   S
    N26    O306      4.48346      .   S
    Zr300  O307      2.47257      .   S
    N23    O307      4.56745      .   S
    Zr300  O308      2.46372      .   S
    N69    O308      4.56109      .   S
    Zr300  O309      2.44268      .   S
    N40    O309      4.54718      .   S
    Zr300  O310      2.49241      .   S
    N69    O310      4.51349      .   S
    Zr300  O311      2.12670      .   S
    N142   O311      3.18273      .   S
    Zr300  O312      2.49667      .   S
    N93    O312      4.55822      .   S
    Zr300  O313      2.46598      .   S
    N41    O313      4.47515      .   S
    Zr300  O314      2.45419      .   S
    N18    O314      4.56619      .   S
    Zr300  O315      2.12142      .   S
    N101   O315      3.12521      .   S
    Zr300  O316      2.50095      .   S
    N86    O316      4.54228      .   S
    Zr300  O317      2.47867      .   S
    N40    O317      4.48618      .   S
    Zr300  O318      2.43595      .   S
    N41    O318      4.52299      .   S
    Zr300  O319      2.45368      .   S
    N72    O319      4.55697      .   S
    Zr300  O320      2.47156      .   S
    N63    O320      4.48743      .   S
    Zr300  O321      2.48233      .   S
    N93    O321      4.58012      .   S
    Zr300  O322      2.44295      .   S
    N26    O322      4.53186      .   S
    Zr300  O323      1.97360      .   S
    N127   O323      2.75269      .   S
    Zr300  O324      2.48347      .   S
    N72    O324      4.51154      .   S
    Zr325  O326      2.48930  1_655   S
    N22    O326      4.53633      .   S
    Zr325  O327      2.47957  1_655   S
    N87    O327      4.57918  1_556   S
    Zr325  O328      2.00913  1_655   S
    N117   O328      2.80419      .   S
    Zr325  O329      2.44201      .   S
    N64    O329      4.53555      .   S
    Zr325  O330      2.47257  1_655   S
    N22    O330      4.56745      .   S
    Zr325  O331      2.46372  1_655   S
    N66    O331      4.56109      .   S
    Zr325  O332      2.47550  1_655   S
    N27    O332      4.48346      .   S
    Zr325  O333      2.49223  1_655   S
    N19    O333      4.50642  1_556   S
    Zr325  O334      2.44268      .   S
    N41    O334      4.54718      .   S
    Zr325  O335      2.49667  1_655   S
    N80    O335      4.55822  1_655   S
    Zr325  O336      2.12670  1_655   S
    N143   O336      3.18273      .   S
    Zr325  O337      2.49241  1_655   S
    N66    O337      4.51349      .   S
    Zr325  O338      2.46598      .   S
    N48    O338      4.47515      .   S
    Zr325  O339      2.50095      .   S
    N87    O339      4.54228  1_456   S
    Zr325  O340      2.12142      .   S
    N102   O340      3.12521      .   S
    Zr325  O341      2.45419  1_655   S
    N19    O341      4.56619  1_556   S
    Zr325  O342      2.43595      .   S
    N48    O342      4.52299      .   S
    Zr325  O343      2.45368      .   S
    N17    O343      4.55697      .   S
    Zr325  O344      2.47156      .   S
    N64    O344      4.48743      .   S
    Zr325  O345      2.47867      .   S
    N41    O345      4.48618      .   S
    Zr325  O346      2.48347      .   S
    N17    O346      4.51154      .   S
    Zr325  O347      2.44295  1_655   S
    N27    O347      4.53186      .   S
    Zr325  O348      1.97360      .   S
    N128   O348      2.75269      .   S
    Zr325  O349      2.48233      .   S
    N80    O349      4.58012      .   S
    Zr350  O351      2.47957  1_455   S
    N88    O351      4.57918  1_556   S
    Zr350  O352      2.00913  1_455   S
    N118   O352      2.80419      .   S
    Zr350  O353      2.48930  1_455   S
    N61    O353      4.53633      .   S
    Zr350  O354      2.44201      .   S
    N65    O354      4.53555      .   S
    Zr350  O355      2.47257  1_455   S
    N61    O355      4.56745      .   S
    Zr350  O356      2.46372  1_455   S
    N63    O356      4.56109      .   S
    Zr350  O357      2.47550  1_455   S
    N28    O357      4.48346      .   S
    Zr350  O358      2.49223  1_455   S
    N73    O358      4.50642  1_556   S
    Zr350  O359      2.44268      .   S
    N42    O359      4.54718      .   S
    Zr350  O360      2.49241  1_455   S
    N63    O360      4.51349      .   S
    Zr350  O361      2.12670  1_455   S
    N144   O361      3.18273      .   S
    Zr350  O362      2.49667  1_455   S
    N1     O362      4.55822  1_455   S
    Zr350  O363      2.46598      .   S
    N35    O363      4.47515      .   S
    Zr350  O364      2.12142      .   S
    N103   O364      3.12521      .   S
    Zr350  O365      2.50095      .   S
    N88    O365      4.54228  1_656   S
    Zr350  O366      2.45419  1_455   S
    N73    O366      4.56619  1_556   S
    Zr350  O367      2.43595      .   S
    N35    O367      4.52299      .   S
    Zr350  O368      2.45368      .   S
    N75    O368      4.55697      .   S
    Zr350  O369      2.47156      .   S
    N65    O369      4.48743      .   S
    Zr350  O370      2.47867      .   S
    N42    O370      4.48618      .   S
    Zr350  O371      2.44295  1_455   S
    N28    O371      4.53186      .   S
    Zr350  O372      2.48347      .   S
    N75    O372      4.51154      .   S
    Zr350  O373      1.97360      .   S
    N129   O373      2.75269      .   S
    Zr350  O374      2.48233      .   S
    N1     O374      4.58012      .   S
    Zr375  O376      2.48930      .   S
    N24    O376      4.53633      .   S
    Zr375  O377      2.47957      .   S
    N89    O377      4.57918      .   S
    Zr375  O378      2.00913      .   S
    N119   O378      2.80419      .   S
    Zr375  O379      2.44201      .   S
    N66    O379      4.53555      .   S
    Zr375  O380      2.47257      .   S
    N24    O380      4.56745      .   S
    Zr375  O381      2.49223      .   S
    N74    O381      4.50642      .   S
    Zr375  O382      2.46372      .   S
    N68    O382      4.56109      .   S
    Zr375  O383      2.47550      .   S
    N29    O383      4.48346      .   S
    Zr375  O384      2.49241      .   S
    N68    O384      4.51349      .   S
    Zr375  O385      2.49667      .   S
    N82    O385      4.55822      .   S
    Zr375  O386      2.12670      .   S
    N145   O386      3.18273      .   S
    Zr375  O387      2.44268      .   S
    N43    O387      4.54718      .   S
    Zr375  O388      2.46598      .   S
    N42    O388      4.47515      .   S
    Zr375  O389      2.12142      .   S
    N104   O389      3.12521      .   S
    Zr375  O390      2.50095      .   S
    N89    O390      4.54228      .   S
    Zr375  O391      2.45419      .   S
    N74    O391      4.56619      .   S
    Zr375  O392      2.47156      .   S
    N66    O392      4.48743      .   S
    Zr375  O393      2.43595      .   S
    N42    O393      4.52299      .   S
    Zr375  O394      2.47867      .   S
    N43    O394      4.48618      .   S
    Zr375  O395      2.45368      .   S
    N0     O395      4.55697      .   S
    Zr375  O396      2.48233      .   S
    N82    O396      4.58012      .   S
    Zr375  O397      1.97360      .   S
    N130   O397      2.75269      .   S
    Zr375  O398      2.44295      .   S
    N29    O398      4.53186      .   S
    Zr375  O399      2.48347      .   S
    N0     O399      4.51154      .   S
    Zr400  O401      2.48930      .   S
    N27    O401      4.53633      .   S
    Zr400  O402      2.47957      .   S
    N90    O402      4.57918      .   S
    Zr400  O403      2.44201      .   S
    N67    O403      4.53555      .   S
    Zr400  O404      2.00913      .   S
    N120   O404      2.80419      .   S
    Zr400  O405      2.47257      .   S
    N27    O405      4.56745      .   S
    Zr400  O406      2.46372      .   S
    N49    O406      4.56109      .   S
    Zr400  O407      2.49223  1_565   S
    N75    O407      4.50642      .   S
    Zr400  O408      2.47550  1_565   S
    N58    O408      4.48346      .   S
    Zr400  O409      2.49241      .   S
    N49    O409      4.51349      .   S
    Zr400  O410      2.44268      .   S
    N44    O410      4.54718      .   S
    Zr400  O411      2.12670      .   S
    N146   O411      3.18273      .   S
    Zr400  O412      2.49667      .   S
    N81    O412      4.55822  1_545   S
    Zr400  O413      2.46598  1_565   S
    N37    O413      4.47515      .   S
    Zr400  O414      2.12142  1_565   S
    N105   O414      3.12521      .   S
    Zr400  O415      2.50095      .   S
    N90    O415      4.54228      .   S
    Zr400  O416      2.45419  1_565   S
    N75    O416      4.56619      .   S
    Zr400  O417      2.47867      .   S
    N44    O417      4.48618      .   S
    Zr400  O418      2.45368  1_565   S
    N77    O418      4.55697      .   S
    Zr400  O419      2.47156      .   S
    N67    O419      4.48743      .   S
    Zr400  O420      2.43595  1_565   S
    N37    O420      4.52299      .   S
    Zr400  O421      2.48347  1_565   S
    N77    O421      4.51154      .   S
    Zr400  O422      2.44295  1_565   S
    N58    O422      4.53186      .   S
    Zr400  O423      2.48233  1_565   S
    N81    O423      4.58012      .   S
    Zr400  O424      1.97360  1_565   S
    N131   O424      2.75269      .   S
    Zr425  O426      2.00913      .   S
    N30    O426      2.80419      .   S
    Zr425  O427      2.47957      .   S
    N91    O427      4.57918      .   S
    Zr425  O428      2.48930      .   S
    N26    O428      4.53633      .   S
    Zr425  O429      2.44201      .   S
    N68    O429      4.53555      .   S
    Zr425  O430      2.47257      .   S
    N26    O430      4.56745      .   S
    Zr425  O431      2.49223      .   S
    N76    O431      4.50642      .   S
    Zr425  O432      2.46372      .   S
    N70    O432      4.56109      .   S
    Zr425  O433      2.47550      .   S
    N59    O433      4.48346      .   S
    Zr425  O434      2.49241      .   S
    N70    O434      4.51349      .   S
    Zr425  O435      2.12670      .   S
    N147   O435      3.18273      .   S
    Zr425  O436      2.44268      .   S
    N45    O436      4.54718      .   S
    Zr425  O437      2.49667      .   S
    N84    O437      4.55822      .   S
    Zr425  O438      2.46598      .   S
    N44    O438      4.47515      .   S
    Zr425  O439      2.12142      .   S
    N106   O439      3.12521      .   S
    Zr425  O440      2.50095      .   S
    N91    O440      4.54228      .   S
    Zr425  O441      2.45419      .   S
    N76    O441      4.56619      .   S
    Zr425  O442      2.47867      .   S
    N45    O442      4.48618      .   S
    Zr425  O443      2.43595      .   S
    N44    O443      4.52299      .   S
    Zr425  O444      2.47156      .   S
    N68    O444      4.48743      .   S
    Zr425  O445      2.45368      .   S
    N13    O445      4.55697      .   S
    Zr425  O446      2.44295      .   S
    N59    O446      4.53186      .   S
    Zr425  O447      2.48233      .   S
    N84    O447      4.58012      .   S
    Zr425  O448      1.97360      .   S
    N132   O448      2.75269      .   S
    Zr425  O449      2.48347      .   S
    N13    O449      4.51154      .   S
    Zr450  O451      2.47957      .   S
    N92    O451      4.57918      .   S
    Zr450  O452      2.48930      .   S
    N29    O452      4.53633      .   S
    Zr450  O453      2.44201      .   S
    N69    O453      4.53555      .   S
    Zr450  O454      2.00913      .   S
    N31    O454      2.80419      .   S
    Zr450  O455      2.49223      .   S
    N77    O455      4.50642      .   S
    Zr450  O456      2.46372      .   S
    N51    O456      4.56109      .   S
    Zr450  O457      2.47550      .   S
    N60    O457      4.48346      .   S
    Zr450  O458      2.47257      .   S
    N29    O458      4.56745      .   S
    Zr450  O459      2.49241      .   S
    N51    O459      4.51349      .   S
    Zr450  O460      2.49667      .   S
    N83    O460      4.55822      .   S
    Zr450  O461      2.12670      .   S
    N148   O461      3.18273      .   S
    Zr450  O462      2.44268      .   S
    N46    O462      4.54718      .   S
    Zr450  O463      2.46598      .   S
    N39    O463      4.47515      .   S
    Zr450  O464      2.45419      .   S
    N77    O464      4.56619      .   S
    Zr450  O465      2.50095      .   S
    N92    O465      4.54228      .   S
    Zr450  O466      2.12142      .   S
    N107   O466      3.12521      .   S
    Zr450  O467      2.43595      .   S
    N39    O467      4.52299      .   S
    Zr450  O468      2.47867      .   S
    N46    O468      4.48618      .   S
    Zr450  O469      2.45368      .   S
    N79    O469      4.55697      .   S
    Zr450  O470      2.47156      .   S
    N69    O470      4.48743      .   S
    Zr450  O471      2.48347      .   S
    N79    O471      4.51154      .   S
    Zr450  O472      2.48233      .   S
    N83    O472      4.58012      .   S
    Zr450  O473      2.44295      .   S
    N60    O473      4.53186      .   S
    Zr450  O474      1.97360      .   S
    N133   O474      2.75269      .   S
    Zr475  O476      2.47257      .   S
    N2     O476      4.56745      .   S
    Zr475  O477      2.49223      .   S
    N14    O477      4.50642      .   S
    Zr475  O478      2.46372      .   S
    N65    O478      4.56109  1_554   S
    Zr475  O479      2.47550      .   S
    N22    O479      4.48346  1_554   S
    Zr475  O480      2.44268      .   S
    N36    O480      4.54718  1_554   S
    Zr475  O481      2.49667      .   S
    N89    O481      4.55822  1_554   S
    Zr475  O482      2.49241      .   S
    N65    O482      4.51349  1_554   S
    Zr475  O483      2.12670      .   S
    N138   O483      3.18273      .   S
    Zr475  O484      2.45419      .   S
    N14    O484      4.56619      .   S
    Zr475  O485      2.50095      .   S
    N82    O485      4.54228      .   S
    Zr475  O486      2.12142      .   S
    N97    O486      3.12521      .   S
    Zr475  O487      2.46598      .   S
    N45    O487      4.47515      .   S
    Zr475  O488      2.45368      .   S
    N16    O488      4.55697      .   S
    Zr475  O489      2.47156      .   S
    N51    O489      4.48743      .   S
    Zr475  O490      2.47867      .   S
    N36    O490      4.48618  1_554   S
    Zr475  O491      2.43595      .   S
    N45    O491      4.52299      .   S
    Zr475  O492      2.44295      .   S
    N22    O492      4.53186  1_554   S
    Zr475  O493      2.48233      .   S
    N89    O493      4.58012  1_554   S
    Zr475  O494      2.48347      .   S
    N16    O494      4.51154      .   S
    Zr475  O495      1.97360      .   S
    N123   O495      2.75269      .   S
    Zr475  O496      2.44201      .   S
    N51    O496      4.53555      .   S
    Zr475  O497      2.47957      .   S
    N82    O497      4.57918      .   S
    Zr475  O498      2.00913      .   S
    N112   O498      2.80419      .   S
    Zr475  O499      2.48930      .   S
    N2     O499      4.53633      .   S
    Zr500  O501      2.49223      .   S
    N15    O501      4.50642  1_556   S
    Zr500  O502      2.46372      .   S
    N54    O502      4.56109      .   S
    Zr500  O503      2.47550      .   S
    N23    O503      4.48346      .   S
    Zr500  O504      2.47257      .   S
    N62    O504      4.56745      .   S
    Zr500  O505      2.49667      .   S
    N92    O505      4.55822      .   S
    Zr500  O506      2.49241      .   S
    N54    O506      4.51349      .   S
    Zr500  O507      2.44268      .   S
    N37    O507      4.54718      .   S
    Zr500  O508      2.12670      .   S
    N139   O508      3.18273      .   S
    Zr500  O509      2.45419      .   S
    N15    O509      4.56619  1_556   S
    Zr500  O510      2.50095      .   S
    N83    O510      4.54228  1_556   S
    Zr500  O511      2.46598      .   S
    N36    O511      4.47515      .   S
    Zr500  O512      2.12142      .   S
    N98    O512      3.12521      .   S
    Zr500  O513      2.47867      .   S
    N37    O513      4.48618      .   S
    Zr500  O514      2.47156      .   S
    N52    O514      4.48743      .   S
    Zr500  O515      2.43595      .   S
    N36    O515      4.52299      .   S
    Zr500  O516      2.45368      .   S
    N74    O516      4.55697      .   S
    Zr500  O517      2.44295      .   S
    N23    O517      4.53186      .   S
    Zr500  O518      2.48233      .   S
    N92    O518      4.58012      .   S
    Zr500  O519      2.48347      .   S
    N74    O519      4.51154      .   S
    Zr500  O520      1.97360      .   S
    N124   O520      2.75269      .   S
    Zr500  O521      2.47957      .   S
    N83    O521      4.57918  1_556   S
    Zr500  O522      2.48930      .   S
    N62    O522      4.53633      .   S
    Zr500  O523      2.44201      .   S
    N52    O523      4.53555      .   S
    Zr500  O524      2.00913      .   S
    N113   O524      2.80419      .   S
    Zr525  O526      2.49223      .   S
    N16    O526      4.50642  1_556   S
    Zr525  O527      2.47257      .   S
    N21    O527      4.56745      .   S
    Zr525  O528      2.47550      .   S
    N24    O528      4.48346      .   S
    Zr525  O529      2.46372      .   S
    N67    O529      4.56109      .   S
    Zr525  O530      2.49241      .   S
    N67    O530      4.51349      .   S
    Zr525  O531      2.44268      .   S
    N38    O531      4.54718      .   S
    Zr525  O532      2.49667      .   S
    N91    O532      4.55822      .   S
    Zr525  O533      2.12670      .   S
    N140   O533      3.18273      .   S
    Zr525  O534      2.46598      .   S
    N47    O534      4.47515      .   S
    Zr525  O535      2.50095      .   S
    N84    O535      4.54228  1_556   S
    Zr525  O536      2.12142      .   S
    N99    O536      3.12521      .   S
    Zr525  O537      2.45419      .   S
    N16    O537      4.56619  1_556   S
    Zr525  O538      2.45368      .   S
    N18    O538      4.55697      .   S
    Zr525  O539      2.47867      .   S
    N38    O539      4.48618      .   S
    Zr525  O540      2.43595      .   S
    N47    O540      4.52299      .   S
    Zr525  O541      2.47156      .   S
    N53    O541      4.48743      .   S
    Zr525  O542      2.48233      .   S
    N91    O542      4.58012      .   S
    Zr525  O543      1.97360      .   S
    N125   O543      2.75269      .   S
    Zr525  O544      2.44295      .   S
    N24    O544      4.53186      .   S
    Zr525  O545      2.48347      .   S
    N18    O545      4.51154      .   S
    Zr525  O546      2.47957      .   S
    N84    O546      4.57918  1_556   S
    Zr525  O547      2.00913      .   S
    N114   O547      2.80419      .   S
    Zr525  O548      2.44201      .   S
    N53    O548      4.53555      .   S
    Zr525  O549      2.48930      .   S
    N21    O549      4.53633      .   S
    Zr550  O551      2.47257      .   S
    N20    O551      4.56745      .   S
    Zr550  O552      2.47550      .   S
    N61    O552      4.48346  1_554   S
    Zr550  O553      2.46372      .   S
    N64    O553      4.56109  1_554   S
    Zr550  O554      2.49223      .   S
    N78    O554      4.50642      .   S
    Zr550  O555      2.48930      .   S
    N20    O555      4.53633      .   S
    Zr550  O556      2.47957      .   S
    N93    O556      4.57918      .   S
    Zr550  O557      2.44201      .   S
    N70    O557      4.53555      .   S
    Zr550  O558      2.00913      .   S
    N32    O558      2.80419      .   S
    Zr550  O559      2.49241      .   S
    N64    O559      4.51349  1_554   S
    Zr550  O560      2.44268      .   S
    N47    O560      4.54718  1_554   S
    Zr550  O561      2.12670      .   S
    N149   O561      3.18273      .   S
    Zr550  O562      2.49667      .   S
    N86    O562      4.55822  1_554   S
    Zr550  O563      2.46598      .   S
    N46    O563      4.47515      .   S
    Zr550  O564      2.50095      .   S
    N93    O564      4.54228      .   S
    Zr550  O565      2.45419      .   S
    N78    O565      4.56619      .   S
    Zr550  O566      2.12142      .   S
    N108   O566      3.12521      .   S
    Zr550  O567      2.45368      .   S
    N15    O567      4.55697      .   S
    Zr550  O568      2.47156      .   S
    N70    O568      4.48743      .   S
    Zr550  O569      2.47867      .   S
    N47    O569      4.48618  1_554   S
    Zr550  O570      2.43595      .   S
    N46    O570      4.52299      .   S
    Zr550  O571      2.44295      .   S
    N61    O571      4.53186  1_554   S
    Zr550  O572      2.48233      .   S
    N86    O572      4.58012  1_554   S
    Zr550  O573      2.48347      .   S
    N15    O573      4.51154      .   S
    Zr550  O574      1.97360      .   S
    N134   O574      2.75269      .   S
    Zr575  O576      2.47257      .   S
    N59    O576      4.56745      .   S
    Zr575  O577      2.49223  1_565   S
    N79    O577      4.50642      .   S
    Zr575  O578      2.46372      .   S
    N53    O578      4.56109  1_554   S
    Zr575  O579      2.47550  1_565   S
    N62    O579      4.48346  1_554   S
    Zr575  O580      2.47957      .   S
    N94    O580      4.57918      .   S
    Zr575  O581      2.48930      .   S
    N59    O581      4.53633      .   S
    Zr575  O582      2.44201      .   S
    N71    O582      4.53555      .   S
    Zr575  O583      2.00913      .   S
    N33    O583      2.80419      .   S
    Zr575  O584      2.49241      .   S
    N53    O584      4.51349  1_554   S
    Zr575  O585      2.49667      .   S
    N85    O585      4.55822  1_544   S
    Zr575  O586      2.44268      .   S
    N48    O586      4.54718  1_554   S
    Zr575  O587      2.12670      .   S
    N150   O587      3.18273      .   S
    Zr575  O588      2.45419  1_565   S
    N79    O588      4.56619      .   S
    Zr575  O589      2.50095      .   S
    N94    O589      4.54228      .   S
    Zr575  O590      2.46598  1_565   S
    N3     O590      4.47515      .   S
    Zr575  O591      2.12142  1_565   S
    N109   O591      3.12521      .   S
    Zr575  O592      2.43595  1_565   S
    N3     O592      4.52299      .   S
    Zr575  O593      2.47867      .   S
    N48    O593      4.48618  1_554   S
    Zr575  O594      2.47156      .   S
    N71    O594      4.48743      .   S
    Zr575  O595      2.45368  1_565   S
    N73    O595      4.55697      .   S
    Zr575  O596      2.48233  1_565   S
    N85    O596      4.58012  1_554   S
    Zr575  O597      2.48347  1_565   S
    N73    O597      4.51154      .   S
    Zr575  O598      2.44295  1_565   S
    N62    O598      4.53186  1_554   S
    Zr575  O599      1.97360  1_565   S
    N135   O599      2.75269      .   S
    Zr600  O601      2.47550  1_455   S
    N20    O601      4.48346      .   S
    Zr600  O602      2.47257  1_455   S
    N25    O602      4.56745      .   S
    Zr600  O603      2.49223  1_455   S
    N72    O603      4.50642      .   S
    Zr600  O604      2.46372  1_455   S
    N71    O604      4.56109      .   S
    Zr600  O605      2.49241  1_455   S
    N71    O605      4.51349      .   S
    Zr600  O606      2.12670  1_455   S
    N136   O606      3.18273      .   S
    Zr600  O607      2.49667  1_455   S
    N87    O607      4.55822  1_455   S
    Zr600  O608      2.44268      .   S
    N34    O608      4.54718      .   S
    Zr600  O609      2.12142      .   S
    N95    O609      3.12521      .   S
    Zr600  O610      2.50095      .   S
    N80    O610      4.54228  1_655   S
    Zr600  O611      2.45419  1_455   S
    N72    O611      4.56619      .   S
    Zr600  O612      2.46598      .   S
    N43    O612      4.47515      .   S
    Zr600  O613      2.43595      .   S
    N43    O613      4.52299      .   S
    Zr600  O614      2.45368      .   S
    N14    O614      4.55697      .   S
    Zr600  O615      2.47867      .   S
    N34    O615      4.48618      .   S
    Zr600  O616      2.47156      .   S
    N49    O616      4.48743      .   S
    Zr600  O617      2.48233      .   S
    N87    O617      4.58012      .   S
    Zr600  O618      2.48347      .   S
    N14    O618      4.51154      .   S
    Zr600  O619      2.44295  1_455   S
    N20    O619      4.53186      .   S
    Zr600  O620      1.97360      .   S
    N121   O620      2.75269      .   S
    Zr600  O621      2.48930  1_455   S
    N25    O621      4.53633      .   S
    Zr600  O622      2.47957  1_455   S
    N80    O622      4.57918      .   S
    Zr600  O623      2.00913  1_455   S
    N110   O623      2.80419      .   S
    Zr600  O624      2.44201      .   S
    N49    O624      4.53555      .   S
    Zr625  O626      2.49223  1_545   S
    N13    O626      4.50642      .   S
    Zr625  O627      2.47550  1_545   S
    N21    O627      4.48346  1_554   S
    Zr625  O628      2.46372      .   S
    N52    O628      4.56109  1_554   S
    Zr625  O629      2.47257      .   S
    N60    O629      4.56745      .   S
    Zr625  O630      2.44268      .   S
    N35    O630      4.54718  1_554   S
    Zr625  O631      2.49667      .   S
    N90    O631      4.55822  1_564   S
    Zr625  O632      2.12670      .   S
    N137   O632      3.18273      .   S
    Zr625  O633      2.49241      .   S
    N52    O633      4.51349  1_554   S
    Zr625  O634      2.45419  1_545   S
    N13    O634      4.56619      .   S
    Zr625  O635      2.46598  1_545   S
    N34    O635      4.47515      .   S
    Zr625  O636      2.50095      .   S
    N81    O636      4.54228      .   S
    Zr625  O637      2.12142  1_545   S
    N96    O637      3.12521      .   S
    Zr625  O638      2.47156      .   S
    N50    O638      4.48743      .   S
    Zr625  O639      2.47867      .   S
    N35    O639      4.48618  1_554   S
    Zr625  O640      2.45368  1_545   S
    N19    O640      4.55697      .   S
    Zr625  O641      2.43595  1_545   S
    N34    O641      4.52299      .   S
    Zr625  O642      2.44295  1_545   S
    N21    O642      4.53186  1_554   S
    Zr625  O643      2.48347  1_545   S
    N19    O643      4.51154      .   S
    Zr625  O644      2.48233  1_545   S
    N90    O644      4.58012  1_554   S
    Zr625  O645      1.97360  1_545   S
    N122   O645      2.75269      .   S
    Zr625  O646      2.48930      .   S
    N60    O646      4.53633      .   S
    Zr625  O647      2.44201      .   S
    N50    O647      4.53555      .   S
    Zr625  O648      2.00913      .   S
    N111   O648      2.80419      .   S
    Zr625  O649      2.47957      .   S
    N81    O649      4.57918      .   S
