# CIF file generated by openbabel 2.4.90, see http://openbabel.sf.net
data_I
_chemical_name_common 'catena-[tris(\m~4~-Fumarato)-(\m~3~-oxo)-tris(methanol)-tri-iron(iii) acetate methanol solvate]'
_cell_length_a 11.184
_cell_length_b 11.184
_cell_length_c 14.591
_cell_angle_alpha 90
_cell_angle_beta 90
_cell_angle_gamma 120
_space_group_name_H-M_alt 'P 1'
_space_group_name_Hall 'P 1'
loop_
    _symmetry_equiv_pos_as_xyz
    x,y,z
loop_
    _atom_site_label
    _atom_site_type_symbol
    _atom_site_fract_x
    _atom_site_fract_y
    _atom_site_fract_z
    _atom_site_occupancy
    O0      O    0.09500   0.24800   0.10500   1.000
    O1      O    0.05900   0.05900   0.00000   1.000
    C2      C    0.19200   0.19200   0.00000   1.000
    C3      C    0.13000   0.13400   0.10500   1.000
    O4      O    0.24800   0.09500   0.89500   1.000
    O5      O    0.15300   0.90500   0.10500   1.000
    O6      O    0.84700   0.75200   0.89500   1.000
    O7      O    0.75200   0.84700   0.10500   1.000
    O8      O    0.90500   0.15300   0.89500   1.000
    O9      O    0.94100   0.00000   0.00000   1.000
    O10     O    0.00000   0.94100   0.00000   1.000
    C11     C    0.00000   0.80800   0.00000   1.000
    C12     C    0.80800   0.00000   0.00000   1.000
    C13     C    0.13400   0.13000   0.89500   1.000
    C14     C    0.00400   0.87000   0.10500   1.000
    C15     C    0.99600   0.86600   0.89500   1.000
    C16     C    0.86600   0.99600   0.10500   1.000
    C17     C    0.87000   0.00400   0.89500   1.000
    O18     O    0.26800   0.53800   0.14800   1.000
    C19     C    0.12300   0.56400   0.25000   1.000
    C20     C    0.24700   0.62400   0.18900   1.000
    O21     O    0.27000   0.73200   0.14800   1.000
    O22     O    0.46200   0.73000   0.14800   1.000
    O23     O    0.46200   0.73000   0.35200   1.000
    O24     O    0.27000   0.73200   0.35200   1.000
    O25     O    0.26800   0.53800   0.35200   1.000
    C26     C    0.43600   0.55900   0.25000   1.000
    C27     C    0.44100   0.87700   0.25000   1.000
    C28     C    0.37700   0.75300   0.18900   1.000
    C29     C    0.37600   0.62300   0.18900   1.000
    C30     C    0.37600   0.62300   0.31100   1.000
    C31     C    0.37700   0.75300   0.31100   1.000
    C32     C    0.24700   0.62400   0.31100   1.000
    Fe33    Fe   0.76900   0.23700   0.25000   1.000
    O34     O    0.66600   0.33300   0.25000   1.000
    O35     O    0.89300   0.37000   0.15100   1.000
    O36     O    0.90900   0.17300   0.25000   1.000
    O37     O    0.88100   0.55900   0.15400   1.000
    C38     C    0.91900   0.48200   0.11400   1.000
    C39     C    0.93500   0.48200   0.01900   1.000
    C40     C    0.06200   0.27100   0.25000   1.000
    Fe41    Fe   0.76300   0.53200   0.25000   1.000
    Fe42    Fe   0.46800   0.23100   0.25000   1.000
    Fe43    Fe   0.23100   0.46800   0.75000   1.000
    Fe44    Fe   0.23700   0.76900   0.75000   1.000
    Fe45    Fe   0.53200   0.76300   0.75000   1.000
    O46     O    0.10700   0.47700   0.84900   1.000
    O47     O    0.89300   0.37000   0.34900   1.000
    O48     O    0.10700   0.47700   0.65100   1.000
    O49     O    0.47700   0.10700   0.15100   1.000
    O50     O    0.37000   0.89300   0.84900   1.000
    O51     O    0.63000   0.52300   0.15100   1.000
    O52     O    0.63000   0.52300   0.34900   1.000
    O53     O    0.47700   0.10700   0.34900   1.000
    O54     O    0.82700   0.73600   0.25000   1.000
    O55     O    0.26400   0.09100   0.25000   1.000
    O56     O    0.11900   0.67800   0.84600   1.000
    O57     O    0.88100   0.55900   0.34600   1.000
    O58     O    0.11900   0.67800   0.65400   1.000
    O59     O    0.67800   0.11900   0.15400   1.000
    O60     O    0.55900   0.88100   0.84600   1.000
    O61     O    0.67800   0.11900   0.34600   1.000
    O62     O    0.44100   0.32200   0.15400   1.000
    O63     O    0.44100   0.32200   0.34600   1.000
    C64     C    0.08100   0.56300   0.88600   1.000
    C65     C    0.91900   0.48200   0.38600   1.000
    C66     C    0.08100   0.56300   0.61400   1.000
    C67     C    0.56300   0.08100   0.11400   1.000
    C68     C    0.48200   0.91900   0.88600   1.000
    C69     C    0.06500   0.54700   0.98100   1.000
    C70     C    0.93500   0.48200   0.48100   1.000
    C71     C    0.06500   0.54700   0.51900   1.000
    C72     C    0.54700   0.06500   0.01900   1.000
    C73     C    0.48200   0.93500   0.98100   1.000
    C74     C    0.72900   0.79100   0.25000   1.000
    C75     C    0.20900   0.93800   0.25000   1.000
    O76     O    0.09500   0.24800   0.39500   1.000
    O77     O    0.75200   0.84700   0.39500   1.000
    O78     O    0.15300   0.90500   0.39500   1.000
    O79     O    0.24800   0.09500   0.60500   1.000
    O80     O    0.84700   0.75200   0.60500   1.000
    O81     O    0.90500   0.15300   0.60500   1.000
    O82     O    0.05900   0.05900   0.50000   1.000
    O83     O    0.94100   0.00000   0.50000   1.000
    O84     O    0.00000   0.94100   0.50000   1.000
    C85     C    0.19200   0.19200   0.50000   1.000
    C86     C    0.80800   0.00000   0.50000   1.000
    C87     C    0.00000   0.80800   0.50000   1.000
    C88     C    0.13000   0.13400   0.39500   1.000
    C89     C    0.86600   0.99600   0.39500   1.000
    C90     C    0.00400   0.87000   0.39500   1.000
    C91     C    0.13400   0.13000   0.60500   1.000
    C92     C    0.99600   0.86600   0.60500   1.000
    C93     C    0.87000   0.00400   0.60500   1.000
    O94     O    0.53800   0.26800   0.85200   1.000
    O95     O    0.73000   0.46200   0.85200   1.000
    O96     O    0.73200   0.27000   0.85200   1.000
    O97     O    0.53800   0.26800   0.64800   1.000
    O98     O    0.73000   0.46200   0.64800   1.000
    O99     O    0.73200   0.27000   0.64800   1.000
    C100    C    0.56400   0.12300   0.75000   1.000
    C101    C    0.55900   0.43600   0.75000   1.000
    C102    C    0.87700   0.44100   0.75000   1.000
    C103    C    0.62400   0.24700   0.81100   1.000
    C104    C    0.62300   0.37600   0.81100   1.000
    C105    C    0.75300   0.37700   0.81100   1.000
    C106    C    0.62400   0.24700   0.68900   1.000
    C107    C    0.62300   0.37600   0.68900   1.000
    C108    C    0.75300   0.37700   0.68900   1.000
    O109    O    0.66700   0.33300   0.25000   1.000
    O110    O    0.66700   0.33400   0.25000   1.000
    O111    O    0.33300   0.66600   0.75000   1.000
    O112    O    0.33300   0.66700   0.75000   1.000
    O113    O    0.33400   0.66700   0.75000   1.000
    O114    O    0.52300   0.63000   0.84900   1.000
    O115    O    0.37000   0.89300   0.65100   1.000
    O116    O    0.52300   0.63000   0.65100   1.000
    O117    O    0.17300   0.90900   0.75000   1.000
    O118    O    0.73600   0.82700   0.75000   1.000
    O119    O    0.09100   0.26400   0.75000   1.000
    O120    O    0.32200   0.44100   0.84600   1.000
    O121    O    0.55900   0.88100   0.65400   1.000
    O122    O    0.32200   0.44100   0.65400   1.000
    C123    C    0.51800   0.43700   0.11400   1.000
    C124    C    0.51800   0.43700   0.38600   1.000
    C125    C    0.56300   0.08100   0.38600   1.000
    C126    C    0.43700   0.51800   0.88600   1.000
    C127    C    0.48200   0.91900   0.61400   1.000
    C128    C    0.43700   0.51800   0.61400   1.000
    C129    C    0.51800   0.45300   0.01900   1.000
    C130    C    0.51800   0.45300   0.48100   1.000
    C131    C    0.54700   0.06500   0.48100   1.000
    C132    C    0.45300   0.51800   0.98100   1.000
    C133    C    0.48200   0.93500   0.51900   1.000
    C134    C    0.45300   0.51800   0.51900   1.000
    C135    C    0.27100   0.06200   0.75000   1.000
    C136    C    0.79100   0.72900   0.75000   1.000
    C137    C    0.93800   0.20900   0.75000   1.000
loop_
    _geom_bond_atom_site_label_1
    _geom_bond_atom_site_label_2
    _geom_bond_distance
    _geom_bond_site_symmetry_2
    _ccdc_geom_bond_type
    Fe43   O122      1.84293      .   S
    Fe43   O111      1.91805      .   S
    Fe43   O120      1.84293      .   S
    Fe44   O56       1.84293      .   S
    Fe44   O58       1.84293      .   S
    Fe44   O112      1.91805      .   S
    Fe45   O60       1.84293      .   S
    Fe45   O121      1.84293      .   S
    Fe45   O113      1.91805      .   S
    O60    C68       1.27627      .   S
    O56    C64       1.27627      .   S
    O50    C68       1.25730      .   S
    O46    C64       1.25730      .   S
    C68    C73       1.39765      .   S
    C64    C69       1.39765      .   S
    C17    O8        1.50926      .   S
    C17    C12       1.67302  1_556   S
    C15    O6        1.50926      .   S
    C15    C11       1.67302  1_656   S
    C13    O4        1.50926      .   S
    C13    C2        1.67302  1_556   S
    C69    C39       1.37580  1_456   S
    C73    C72       1.37580  1_566   S
    O1     O10       1.14290  1_545   S
    O1     O9        1.14290  1_455   S
    O10    O9        1.14290  1_465   S
    C2     C3        1.67302      .   S
    C11    C14       1.67302      .   S
    C12    C16       1.67302  1_545   S
    C72    C67       1.39765      .   S
    C39    C38       1.39765      .   S
    C129   C123      1.39765      .   S
    C129   C132      1.37580  1_554   S
    C16    O7        1.50926      .   S
    O0     C3        1.50926      .   S
    C14    O5        1.50926      .   S
    C38    O35       1.25730      .   S
    C38    O37       1.27627      .   S
    C123   O51       1.25730      .   S
    C123   O62       1.27627      .   S
    C67    O49       1.25730      .   S
    C67    O59       1.27627      .   S
    O18    C29       1.25391      .   S
    O18    C20       1.25062      .   S
    O22    C29       1.25062      .   S
    O22    C28       1.25391      .   S
    O21    C28       1.25062      .   S
    O21    C20       1.25391      .   S
    O37    Fe41      1.84293      .   S
    O62    Fe42      1.84293      .   S
    O59    Fe33      1.84293      .   S
    C29    C28       1.44836      .   S
    C29    C20       1.44836      .   S
    C28    C20       1.44836      .   S
    O54    C74       1.50128      .   S
    O55    C75       1.50128  1_545   S
    O109   Fe33      1.91805      .   S
    O110   Fe41      1.91805      .   S
    Fe42   O34       1.91805      .   S
    Fe42   O63       1.84293      .   S
    Fe41   O57       1.84293      .   S
    C40    O36       1.50128  1_455   S
    Fe33   O61       1.84293      .   S
    C30    C31       1.44836      .   S
    C30    C32       1.44836      .   S
    C30    O25       1.25391      .   S
    C30    O23       1.25062      .   S
    C31    C32       1.44836      .   S
    C31    O24       1.25062      .   S
    C31    O23       1.25391      .   S
    C32    O25       1.25062      .   S
    C32    O24       1.25391      .   S
    O57    C65       1.27627      .   S
    O61    C125      1.27627      .   S
    O63    C124      1.27627      .   S
    O52    C124      1.25730      .   S
    O47    C65       1.25730      .   S
    O53    C125      1.25730      .   S
    C124   C130      1.39765      .   S
    C65    C70       1.39765      .   S
    C125   C131      1.39765      .   S
    C90    O78       1.50926      .   S
    C90    C87       1.67302      .   S
    C89    O77       1.50926      .   S
    C89    C86       1.67302  1_565   S
    C88    O76       1.50926      .   S
    C88    C85       1.67302      .   S
    C131   C133      1.37580  1_545   S
    C130   C134      1.37580      .   S
    C70    C71       1.37580  1_655   S
    O82    O84       1.14290  1_545   S
    O82    O83       1.14290  1_455   S
    O84    O83       1.14290  1_465   S
    C86    C93       1.67302      .   S
    C85    C91       1.67302      .   S
    C87    C92       1.67302  1_455   S
    C71    C66       1.39765      .   S
    C133   C127      1.39765      .   S
    C134   C128      1.39765      .   S
    O80    C92       1.50926      .   S
    O81    C93       1.50926      .   S
    C91    O79       1.50926      .   S
    C128   O116      1.25730      .   S
    C128   O122      1.27627      .   S
    C66    O48       1.25730      .   S
    C66    O58       1.27627      .   S
    C127   O115      1.25730      .   S
    C127   O121      1.27627      .   S
    O98    C108      1.25391      .   S
    O98    C107      1.25062      .   S
    O99    C108      1.25062      .   S
    O99    C106      1.25391      .   S
    O97    C107      1.25391      .   S
    O97    C106      1.25062      .   S
    C108   C107      1.44836      .   S
    C108   C106      1.44836      .   S
    C107   C106      1.44836      .   S
    C137   O119      1.50128  1_655   S
    C136   O118      1.50128      .   S
    C135   O117      1.50128  1_545   S
    C105   C104      1.44836      .   S
    C105   C103      1.44836      .   S
    C105   O96       1.25062      .   S
    C105   O95       1.25391      .   S
    C104   C103      1.44836      .   S
    C104   O95       1.25062      .   S
    C104   O94       1.25391      .   S
    C103   O96       1.25391      .   S
    C103   O94       1.25062      .   S
    O120   C126      1.27627      .   S
    O114   C126      1.25730      .   S
    C126   C132      1.39765      .   S
    O34    Fe33      1.92784      .   S
    O34    Fe41      1.92764      .   S
    O35    Fe33      2.03951      .   S
    O36    Fe33      2.02106      .   S
    O46    Fe43      2.03951      .   S
    O47    Fe33      2.03951      .   S
    O48    Fe43      2.03951      .   S
    O49    Fe42      2.03951      .   S
    O50    Fe44      2.03951      .   S
    O51    Fe41      2.03951      .   S
    O52    Fe41      2.03951      .   S
    O53    Fe42      2.03951      .   S
    O54    Fe41      2.02106      .   S
    O55    Fe42      2.02106      .   S
    O109   Fe41      1.92784      .   S
    O109   Fe42      1.92764      .   S
    O110   Fe33      1.92764      .   S
    O110   Fe42      1.92784      .   S
    O111   Fe44      1.92784      .   S
    O111   Fe45      1.92764      .   S
    O112   Fe43      1.92764      .   S
    O112   Fe45      1.92784      .   S
    O113   Fe43      1.92784      .   S
    O113   Fe44      1.92764      .   S
    O114   Fe45      2.03951      .   S
    O115   Fe44      2.03951      .   S
    O116   Fe45      2.03951      .   S
    O117   Fe44      2.02106      .   S
    O118   Fe45      2.02106      .   S
    O119   Fe43      2.02106      .   S
