# CIF file generated by openbabel 2.4.90, see http://openbabel.sf.net
data_I
_chemical_name_common '?'
_cell_length_a 20.7004
_cell_length_b 20.7004
_cell_length_c 20.7004
_cell_angle_alpha 90
_cell_angle_beta 90
_cell_angle_gamma 90
_space_group_name_H-M_alt 'P 1'
_space_group_name_Hall 'P 1'
loop_
    _symmetry_equiv_pos_as_xyz
    x,y,z
loop_
    _atom_site_label
    _atom_site_type_symbol
    _atom_site_fract_x
    _atom_site_fract_y
    _atom_site_fract_z
    _atom_site_occupancy
    Zr0     Zr   0.11989   0.00000   0.00000   1.000
    O1      O    0.17047   0.00000   0.09530   1.000
    O2      O    0.05610   0.94390   0.94390   0.750
    C3      C    0.15360   0.00000   0.84640   1.000
    C4      C    0.20500   0.00000   0.20500   1.000
    C5      C    0.26750   0.00000   0.18440   1.000
    Zr6     Zr   0.88011   0.00000   0.00000   1.000
    Zr7     Zr   0.00000   0.11989   0.00000   1.000
    Zr8     Zr   0.00000   0.88011   0.00000   1.000
    Zr9     Zr   0.00000   0.00000   0.11989   1.000
    Zr10    Zr   0.00000   0.00000   0.88011   1.000
    Zr11    Zr   0.11989   0.50000   0.50000   1.000
    Zr12    Zr   0.88011   0.50000   0.50000   1.000
    Zr13    Zr   0.00000   0.61989   0.50000   1.000
    Zr14    Zr   0.00000   0.38011   0.50000   1.000
    Zr15    Zr   0.00000   0.50000   0.61989   1.000
    Zr16    Zr   0.00000   0.50000   0.38011   1.000
    Zr17    Zr   0.61989   0.00000   0.50000   1.000
    Zr18    Zr   0.38011   0.00000   0.50000   1.000
    Zr19    Zr   0.50000   0.11989   0.50000   1.000
    Zr20    Zr   0.50000   0.88011   0.50000   1.000
    Zr21    Zr   0.50000   0.00000   0.61989   1.000
    Zr22    Zr   0.50000   0.00000   0.38011   1.000
    Zr23    Zr   0.61989   0.50000   0.00000   1.000
    Zr24    Zr   0.38011   0.50000   0.00000   1.000
    Zr25    Zr   0.50000   0.61989   0.00000   1.000
    Zr26    Zr   0.50000   0.38011   0.00000   1.000
    Zr27    Zr   0.50000   0.50000   0.11989   1.000
    Zr28    Zr   0.50000   0.50000   0.88011   1.000
    O29     O    0.82953   0.00000   0.09530   1.000
    O30     O    0.82953   0.00000   0.90470   1.000
    O31     O    0.17047   0.00000   0.90470   1.000
    O32     O    0.09530   0.17047   0.00000   1.000
    O33     O    0.09530   0.82953   0.00000   1.000
    O34     O    0.90470   0.82953   0.00000   1.000
    O35     O    0.90470   0.17047   0.00000   1.000
    O36     O    0.00000   0.09530   0.17047   1.000
    O37     O    0.00000   0.09530   0.82953   1.000
    O38     O    0.00000   0.90470   0.82953   1.000
    O39     O    0.00000   0.90470   0.17047   1.000
    O40     O    0.00000   0.17047   0.90470   1.000
    O41     O    0.00000   0.82953   0.90470   1.000
    O42     O    0.00000   0.82953   0.09530   1.000
    O43     O    0.00000   0.17047   0.09530   1.000
    O44     O    0.17047   0.09530   0.00000   1.000
    O45     O    0.82953   0.09530   0.00000   1.000
    O46     O    0.82953   0.90470   0.00000   1.000
    O47     O    0.17047   0.90470   0.00000   1.000
    O48     O    0.09530   0.00000   0.82953   1.000
    O49     O    0.09530   0.00000   0.17047   1.000
    O50     O    0.90470   0.00000   0.17047   1.000
    O51     O    0.90470   0.00000   0.82953   1.000
    O52     O    0.17047   0.50000   0.59530   1.000
    O53     O    0.82953   0.50000   0.59530   1.000
    O54     O    0.82953   0.50000   0.40470   1.000
    O55     O    0.17047   0.50000   0.40470   1.000
    O56     O    0.09530   0.67047   0.50000   1.000
    O57     O    0.09530   0.32953   0.50000   1.000
    O58     O    0.90470   0.32953   0.50000   1.000
    O59     O    0.90470   0.67047   0.50000   1.000
    O60     O    0.00000   0.59530   0.67047   1.000
    O61     O    0.00000   0.59530   0.32953   1.000
    O62     O    0.00000   0.40470   0.32953   1.000
    O63     O    0.00000   0.40470   0.67047   1.000
    O64     O    0.00000   0.67047   0.40470   1.000
    O65     O    0.00000   0.32953   0.40470   1.000
    O66     O    0.00000   0.32953   0.59530   1.000
    O67     O    0.00000   0.67047   0.59530   1.000
    O68     O    0.17047   0.59530   0.50000   1.000
    O69     O    0.82953   0.59530   0.50000   1.000
    O70     O    0.82953   0.40470   0.50000   1.000
    O71     O    0.17047   0.40470   0.50000   1.000
    O72     O    0.09530   0.50000   0.32953   1.000
    O73     O    0.09530   0.50000   0.67047   1.000
    O74     O    0.90470   0.50000   0.67047   1.000
    O75     O    0.90470   0.50000   0.32953   1.000
    O76     O    0.67047   0.00000   0.59530   1.000
    O77     O    0.32953   0.00000   0.59530   1.000
    O78     O    0.32953   0.00000   0.40470   1.000
    O79     O    0.67047   0.00000   0.40470   1.000
    O80     O    0.59530   0.17047   0.50000   1.000
    O81     O    0.59530   0.82953   0.50000   1.000
    O82     O    0.40470   0.82953   0.50000   1.000
    O83     O    0.40470   0.17047   0.50000   1.000
    O84     O    0.50000   0.09530   0.67047   1.000
    O85     O    0.50000   0.09530   0.32953   1.000
    O86     O    0.50000   0.90470   0.32953   1.000
    O87     O    0.50000   0.90470   0.67047   1.000
    O88     O    0.50000   0.17047   0.40470   1.000
    O89     O    0.50000   0.82953   0.40470   1.000
    O90     O    0.50000   0.82953   0.59530   1.000
    O91     O    0.50000   0.17047   0.59530   1.000
    O92     O    0.67047   0.09530   0.50000   1.000
    O93     O    0.32953   0.09530   0.50000   1.000
    O94     O    0.32953   0.90470   0.50000   1.000
    O95     O    0.67047   0.90470   0.50000   1.000
    O96     O    0.59530   0.00000   0.32953   1.000
    O97     O    0.59530   0.00000   0.67047   1.000
    O98     O    0.40470   0.00000   0.67047   1.000
    O99     O    0.40470   0.00000   0.32953   1.000
    O100    O    0.67047   0.50000   0.09530   1.000
    O101    O    0.32953   0.50000   0.09530   1.000
    O102    O    0.32953   0.50000   0.90470   1.000
    O103    O    0.67047   0.50000   0.90470   1.000
    O104    O    0.59530   0.67047   0.00000   1.000
    O105    O    0.59530   0.32953   0.00000   1.000
    O106    O    0.40470   0.32953   0.00000   1.000
    O107    O    0.40470   0.67047   0.00000   1.000
    O108    O    0.50000   0.59530   0.17047   1.000
    O109    O    0.50000   0.59530   0.82953   1.000
    O110    O    0.50000   0.40470   0.82953   1.000
    O111    O    0.50000   0.40470   0.17047   1.000
    O112    O    0.50000   0.67047   0.90470   1.000
    O113    O    0.50000   0.32953   0.90470   1.000
    O114    O    0.50000   0.32953   0.09530   1.000
    O115    O    0.50000   0.67047   0.09530   1.000
    O116    O    0.67047   0.59530   0.00000   1.000
    O117    O    0.32953   0.59530   0.00000   1.000
    O118    O    0.32953   0.40470   0.00000   1.000
    O119    O    0.67047   0.40470   0.00000   1.000
    O120    O    0.59530   0.50000   0.82953   1.000
    O121    O    0.59530   0.50000   0.17047   1.000
    O122    O    0.40470   0.50000   0.17047   1.000
    O123    O    0.40470   0.50000   0.82953   1.000
    O124    O    0.94390   0.05610   0.94390   0.750
    O125    O    0.94390   0.94390   0.05610   0.750
    O126    O    0.05610   0.05610   0.05610   0.750
    O127    O    0.94390   0.05610   0.05610   0.750
    O128    O    0.05610   0.94390   0.05610   0.750
    O129    O    0.94390   0.94390   0.94390   0.750
    O130    O    0.05610   0.05610   0.94390   0.750
    O131    O    0.05610   0.44390   0.44390   0.750
    O132    O    0.94390   0.55610   0.44390   0.750
    O133    O    0.94390   0.44390   0.55610   0.750
    O134    O    0.05610   0.55610   0.55610   0.750
    O135    O    0.94390   0.55610   0.55610   0.750
    O136    O    0.05610   0.44390   0.55610   0.750
    O137    O    0.94390   0.44390   0.44390   0.750
    O138    O    0.05610   0.55610   0.44390   0.750
    O139    O    0.55610   0.94390   0.44390   0.750
    O140    O    0.44390   0.05610   0.44390   0.750
    O141    O    0.44390   0.94390   0.55610   0.750
    O142    O    0.55610   0.05610   0.55610   0.750
    O143    O    0.44390   0.05610   0.55610   0.750
    O144    O    0.55610   0.94390   0.55610   0.750
    O145    O    0.44390   0.94390   0.44390   0.750
    O146    O    0.55610   0.05610   0.44390   0.750
    O147    O    0.55610   0.44390   0.94390   0.750
    O148    O    0.44390   0.55610   0.94390   0.750
    O149    O    0.44390   0.44390   0.05610   0.750
    O150    O    0.55610   0.55610   0.05610   0.750
    O151    O    0.44390   0.55610   0.05610   0.750
    O152    O    0.55610   0.44390   0.05610   0.750
    O153    O    0.44390   0.44390   0.94390   0.750
    O154    O    0.55610   0.55610   0.94390   0.750
    C155    C    0.84640   0.00000   0.84640   1.000
    C156    C    0.84640   0.00000   0.15360   1.000
    C157    C    0.15360   0.00000   0.15360   1.000
    C158    C    0.84640   0.15360   0.00000   1.000
    C159    C    0.84640   0.84640   0.00000   1.000
    C160    C    0.15360   0.84640   0.00000   1.000
    C161    C    0.15360   0.15360   0.00000   1.000
    C162    C    0.00000   0.84640   0.15360   1.000
    C163    C    0.00000   0.84640   0.84640   1.000
    C164    C    0.00000   0.15360   0.84640   1.000
    C165    C    0.00000   0.15360   0.15360   1.000
    C166    C    0.15360   0.50000   0.34640   1.000
    C167    C    0.84640   0.50000   0.34640   1.000
    C168    C    0.84640   0.50000   0.65360   1.000
    C169    C    0.15360   0.50000   0.65360   1.000
    C170    C    0.84640   0.65360   0.50000   1.000
    C171    C    0.84640   0.34640   0.50000   1.000
    C172    C    0.15360   0.34640   0.50000   1.000
    C173    C    0.15360   0.65360   0.50000   1.000
    C174    C    0.00000   0.34640   0.65360   1.000
    C175    C    0.00000   0.34640   0.34640   1.000
    C176    C    0.00000   0.65360   0.34640   1.000
    C177    C    0.00000   0.65360   0.65360   1.000
    C178    C    0.65360   0.00000   0.34640   1.000
    C179    C    0.34640   0.00000   0.34640   1.000
    C180    C    0.34640   0.00000   0.65360   1.000
    C181    C    0.65360   0.00000   0.65360   1.000
    C182    C    0.34640   0.15360   0.50000   1.000
    C183    C    0.34640   0.84640   0.50000   1.000
    C184    C    0.65360   0.84640   0.50000   1.000
    C185    C    0.65360   0.15360   0.50000   1.000
    C186    C    0.50000   0.84640   0.65360   1.000
    C187    C    0.50000   0.84640   0.34640   1.000
    C188    C    0.50000   0.15360   0.34640   1.000
    C189    C    0.50000   0.15360   0.65360   1.000
    C190    C    0.65360   0.50000   0.84640   1.000
    C191    C    0.34640   0.50000   0.84640   1.000
    C192    C    0.34640   0.50000   0.15360   1.000
    C193    C    0.65360   0.50000   0.15360   1.000
    C194    C    0.34640   0.65360   0.00000   1.000
    C195    C    0.34640   0.34640   0.00000   1.000
    C196    C    0.65360   0.34640   0.00000   1.000
    C197    C    0.65360   0.65360   0.00000   1.000
    C198    C    0.50000   0.34640   0.15360   1.000
    C199    C    0.50000   0.34640   0.84640   1.000
    C200    C    0.50000   0.65360   0.84640   1.000
    C201    C    0.50000   0.65360   0.15360   1.000
    C202    C    0.79500   0.00000   0.20500   1.000
    C203    C    0.79500   0.00000   0.79500   1.000
    C204    C    0.20500   0.00000   0.79500   1.000
    C205    C    0.20500   0.20500   0.00000   1.000
    C206    C    0.20500   0.79500   0.00000   1.000
    C207    C    0.79500   0.79500   0.00000   1.000
    C208    C    0.79500   0.20500   0.00000   1.000
    C209    C    0.00000   0.20500   0.20500   1.000
    C210    C    0.00000   0.20500   0.79500   1.000
    C211    C    0.00000   0.79500   0.79500   1.000
    C212    C    0.00000   0.79500   0.20500   1.000
    C213    C    0.20500   0.50000   0.70500   1.000
    C214    C    0.79500   0.50000   0.70500   1.000
    C215    C    0.79500   0.50000   0.29500   1.000
    C216    C    0.20500   0.50000   0.29500   1.000
    C217    C    0.20500   0.70500   0.50000   1.000
    C218    C    0.20500   0.29500   0.50000   1.000
    C219    C    0.79500   0.29500   0.50000   1.000
    C220    C    0.79500   0.70500   0.50000   1.000
    C221    C    0.00000   0.70500   0.70500   1.000
    C222    C    0.00000   0.70500   0.29500   1.000
    C223    C    0.00000   0.29500   0.29500   1.000
    C224    C    0.00000   0.29500   0.70500   1.000
    C225    C    0.70500   0.00000   0.70500   1.000
    C226    C    0.29500   0.00000   0.70500   1.000
    C227    C    0.29500   0.00000   0.29500   1.000
    C228    C    0.70500   0.00000   0.29500   1.000
    C229    C    0.70500   0.20500   0.50000   1.000
    C230    C    0.70500   0.79500   0.50000   1.000
    C231    C    0.29500   0.79500   0.50000   1.000
    C232    C    0.29500   0.20500   0.50000   1.000
    C233    C    0.50000   0.20500   0.70500   1.000
    C234    C    0.50000   0.20500   0.29500   1.000
    C235    C    0.50000   0.79500   0.29500   1.000
    C236    C    0.50000   0.79500   0.70500   1.000
    C237    C    0.70500   0.50000   0.20500   1.000
    C238    C    0.29500   0.50000   0.20500   1.000
    C239    C    0.29500   0.50000   0.79500   1.000
    C240    C    0.70500   0.50000   0.79500   1.000
    C241    C    0.70500   0.70500   0.00000   1.000
    C242    C    0.70500   0.29500   0.00000   1.000
    C243    C    0.29500   0.29500   0.00000   1.000
    C244    C    0.29500   0.70500   0.00000   1.000
    C245    C    0.50000   0.70500   0.20500   1.000
    C246    C    0.50000   0.70500   0.79500   1.000
    C247    C    0.50000   0.29500   0.79500   1.000
    C248    C    0.50000   0.29500   0.20500   1.000
    C249    C    0.73250   0.00000   0.18440   1.000
    C250    C    0.73250   0.00000   0.81560   1.000
    C251    C    0.26750   0.00000   0.81560   1.000
    C252    C    0.18440   0.26750   0.00000   1.000
    C253    C    0.18440   0.73250   0.00000   1.000
    C254    C    0.81560   0.73250   0.00000   1.000
    C255    C    0.81560   0.26750   0.00000   1.000
    C256    C    0.00000   0.18440   0.26750   1.000
    C257    C    0.00000   0.18440   0.73250   1.000
    C258    C    0.00000   0.81560   0.73250   1.000
    C259    C    0.00000   0.81560   0.26750   1.000
    C260    C    0.00000   0.26750   0.81560   1.000
    C261    C    0.00000   0.73250   0.81560   1.000
    C262    C    0.00000   0.73250   0.18440   1.000
    C263    C    0.00000   0.26750   0.18440   1.000
    C264    C    0.26750   0.18440   0.00000   1.000
    C265    C    0.73250   0.18440   0.00000   1.000
    C266    C    0.73250   0.81560   0.00000   1.000
    C267    C    0.26750   0.81560   0.00000   1.000
    C268    C    0.18440   0.00000   0.73250   1.000
    C269    C    0.18440   0.00000   0.26750   1.000
    C270    C    0.81560   0.00000   0.26750   1.000
    C271    C    0.81560   0.00000   0.73250   1.000
    C272    C    0.26750   0.50000   0.68440   1.000
    C273    C    0.73250   0.50000   0.68440   1.000
    C274    C    0.73250   0.50000   0.31560   1.000
    C275    C    0.26750   0.50000   0.31560   1.000
    C276    C    0.18440   0.76750   0.50000   1.000
    C277    C    0.18440   0.23250   0.50000   1.000
    C278    C    0.81560   0.23250   0.50000   1.000
    C279    C    0.81560   0.76750   0.50000   1.000
    C280    C    0.00000   0.68440   0.76750   1.000
    C281    C    0.00000   0.68440   0.23250   1.000
    C282    C    0.00000   0.31560   0.23250   1.000
    C283    C    0.00000   0.31560   0.76750   1.000
    C284    C    0.00000   0.76750   0.31560   1.000
    C285    C    0.00000   0.23250   0.31560   1.000
    C286    C    0.00000   0.23250   0.68440   1.000
    C287    C    0.00000   0.76750   0.68440   1.000
    C288    C    0.26750   0.68440   0.50000   1.000
    C289    C    0.73250   0.68440   0.50000   1.000
    C290    C    0.73250   0.31560   0.50000   1.000
    C291    C    0.26750   0.31560   0.50000   1.000
    C292    C    0.18440   0.50000   0.23250   1.000
    C293    C    0.18440   0.50000   0.76750   1.000
    C294    C    0.81560   0.50000   0.76750   1.000
    C295    C    0.81560   0.50000   0.23250   1.000
    C296    C    0.76750   0.00000   0.68440   1.000
    C297    C    0.23250   0.00000   0.68440   1.000
    C298    C    0.23250   0.00000   0.31560   1.000
    C299    C    0.76750   0.00000   0.31560   1.000
    C300    C    0.68440   0.26750   0.50000   1.000
    C301    C    0.68440   0.73250   0.50000   1.000
    C302    C    0.31560   0.73250   0.50000   1.000
    C303    C    0.31560   0.26750   0.50000   1.000
    C304    C    0.50000   0.18440   0.76750   1.000
    C305    C    0.50000   0.18440   0.23250   1.000
    C306    C    0.50000   0.81560   0.23250   1.000
    C307    C    0.50000   0.81560   0.76750   1.000
    C308    C    0.50000   0.26750   0.31560   1.000
    C309    C    0.50000   0.73250   0.31560   1.000
    C310    C    0.50000   0.73250   0.68440   1.000
    C311    C    0.50000   0.26750   0.68440   1.000
    C312    C    0.76750   0.18440   0.50000   1.000
    C313    C    0.23250   0.18440   0.50000   1.000
    C314    C    0.23250   0.81560   0.50000   1.000
    C315    C    0.76750   0.81560   0.50000   1.000
    C316    C    0.68440   0.00000   0.23250   1.000
    C317    C    0.68440   0.00000   0.76750   1.000
    C318    C    0.31560   0.00000   0.76750   1.000
    C319    C    0.31560   0.00000   0.23250   1.000
    C320    C    0.76750   0.50000   0.18440   1.000
    C321    C    0.23250   0.50000   0.18440   1.000
    C322    C    0.23250   0.50000   0.81560   1.000
    C323    C    0.76750   0.50000   0.81560   1.000
    C324    C    0.68440   0.76750   0.00000   1.000
    C325    C    0.68440   0.23250   0.00000   1.000
    C326    C    0.31560   0.23250   0.00000   1.000
    C327    C    0.31560   0.76750   0.00000   1.000
    C328    C    0.50000   0.68440   0.26750   1.000
    C329    C    0.50000   0.68440   0.73250   1.000
    C330    C    0.50000   0.31560   0.73250   1.000
    C331    C    0.50000   0.31560   0.26750   1.000
    C332    C    0.50000   0.76750   0.81560   1.000
    C333    C    0.50000   0.23250   0.81560   1.000
    C334    C    0.50000   0.23250   0.18440   1.000
    C335    C    0.50000   0.76750   0.18440   1.000
    C336    C    0.76750   0.68440   0.00000   1.000
    C337    C    0.23250   0.68440   0.00000   1.000
    C338    C    0.23250   0.31560   0.00000   1.000
    C339    C    0.76750   0.31560   0.00000   1.000
    C340    C    0.68440   0.50000   0.73250   1.000
    C341    C    0.68440   0.50000   0.26750   1.000
    C342    C    0.31560   0.50000   0.26750   1.000
    C343    C    0.31560   0.50000   0.73250   1.000
loop_
    _geom_bond_atom_site_label_1
    _geom_bond_atom_site_label_2
    _geom_bond_distance
    _geom_bond_site_symmetry_2
    _ccdc_geom_bond_type
    C3     C204      1.50472      .   S
    C3     O48       1.25634      .   S
    C3     O31       1.25634      .   S
    O2     Zr0       2.10734  1_566   S
    O2     Zr10      2.10734  1_565   S
    O105   C196      1.25634      .   S
    O105   Zr26      2.23338      .   S
    O47    C160      1.25634      .   S
    O47    Zr0       2.23338  1_565   S
    O46    C159      1.25634      .   S
    O46    Zr6       2.23338  1_565   S
    O45    C158      1.25634      .   S
    O44    C161      1.25634      .   S
    O107   C194      1.25634      .   S
    C160   O33       1.25634      .   S
    C160   C206      1.50472      .   S
    C161   O32       1.25634      .   S
    C161   C205      1.50472      .   S
    O106   C195      1.25634      .   S
    C158   C208      1.50472      .   S
    C158   O35       1.25634      .   S
    Zr0    O128      2.10734  1_545   S
    Zr0    O31       2.23338  1_554   S
    Zr0    O130      2.10734  1_554   S
    C208   C255      1.36224      .   S
    C208   C265      1.36224      .   S
    O34    C159      1.25634      .   S
    O34    Zr8       2.23338  1_655   S
    C159   C207      1.50472      .   S
    O35    Zr7       2.23338  1_655   S
    O116   C197      1.25634      .   S
    O116   Zr23      2.23338      .   S
    C241   C197      1.50472      .   S
    C241   C324      1.36224      .   S
    C241   C336      1.36224      .   S
    C242   C196      1.50472      .   S
    C242   C339      1.36224      .   S
    C242   C325      1.36224      .   S
    C243   C195      1.50472      .   S
    C243   C338      1.36224      .   S
    C243   C326      1.36224      .   S
    C244   C337      1.36224      .   S
    C244   C194      1.50472      .   S
    C244   C327      1.36224      .   S
    C252   C338      1.40812      .   S
    C252   C205      1.36224      .   S
    C253   C337      1.40812      .   S
    C253   C206      1.36224      .   S
    C254   C336      1.40812      .   S
    C254   C207      1.36224      .   S
    C255   C339      1.40812      .   S
    O119   C196      1.25634      .   S
    O118   C195      1.25634      .   S
    O117   C194      1.25634      .   S
    O117   Zr24      2.23338      .   S
    C267   C327      1.40812      .   S
    C267   C206      1.36224      .   S
    C197   O104      1.25634      .   S
    Zr6    O125      2.10734  1_545   S
    Zr6    O30       2.23338  1_554   S
    Zr6    O124      2.10734  1_554   S
    Zr6    O129      2.10734  1_544   S
    Zr7    O127      2.10734  1_455   S
    Zr7    O126      2.10734      .   S
    Zr7    O40       2.23338  1_554   S
    Zr8    O42       2.23338      .   S
    Zr8    O41       2.23338  1_554   S
    Zr8    O129      2.10734  1_454   S
    C266   C324      1.40812      .   S
    C266   C207      1.36224      .   S
    C265   C325      1.40812      .   S
    Zr23   O103      2.23338  1_554   S
    Zr23   O154      2.10734  1_554   S
    Zr23   O147      2.10734  1_554   S
    O104   Zr25      2.23338      .   S
    C326   C264      1.40812      .   S
    C264   C205      1.36224      .   S
    Zr26   O152      2.10734      .   S
    Zr26   O113      2.23338  1_554   S
    Zr26   O153      2.10734  1_554   S
    Zr26   O147      2.10734  1_554   S
    Zr25   O150      2.10734      .   S
    Zr25   O112      2.23338  1_554   S
    Zr25   O154      2.10734  1_554   S
    Zr25   O148      2.10734  1_554   S
    Zr24   O149      2.10734      .   S
    Zr24   O151      2.10734      .   S
    Zr24   O102      2.23338  1_554   S
    Zr24   O153      2.10734  1_554   S
    Zr24   O148      2.10734  1_554   S
    O149   Zr27      2.10734      .   S
    O150   Zr27      2.10734      .   S
    O151   Zr27      2.10734      .   S
    O152   Zr27      2.10734      .   S
    O128   Zr9       2.10734  1_565   S
    O127   Zr9       2.10734  1_655   S
    O126   Zr9       2.10734      .   S
    O125   Zr9       2.10734  1_665   S
    O114   C198      1.25634      .   S
    O115   C201      1.25634      .   S
    O42    C162      1.25634      .   S
    O100   C193      1.25634      .   S
    O101   C192      1.25634      .   S
    O43    C165      1.25634      .   S
    O29    C156      1.25634      .   S
    O1     C157      1.25634      .   S
    Zr27   O121      2.23338      .   S
    Zr27   O108      2.23338      .   S
    Zr9    O50       2.23338  1_455   S
    Zr9    O39       2.23338  1_545   S
    C156   O50       1.25634      .   S
    C156   C202      1.50472      .   S
    C157   O49       1.25634      .   S
    C157   C4        1.50472      .   S
    C192   O122      1.25634      .   S
    C192   C238      1.50472      .   S
    C193   O121      1.25634      .   S
    C193   C237      1.50472      .   S
    C198   O111      1.25634      .   S
    C198   C248      1.50472      .   S
    C162   O39       1.25634      .   S
    C162   C212      1.50472      .   S
    C165   O36       1.25634      .   S
    C165   C209      1.50472      .   S
    C201   O108      1.25634      .   S
    C201   C245      1.50472      .   S
    C334   C248      1.36224      .   S
    C334   C305      1.40812      .   S
    C262   C212      1.36224      .   S
    C262   C281      1.40812      .   S
    C263   C209      1.36224      .   S
    C263   C282      1.40812      .   S
    C335   C245      1.36224      .   S
    C335   C306      1.40812      .   S
    C321   C238      1.36224      .   S
    C321   C292      1.40812      .   S
    C249   C202      1.36224      .   S
    C249   C316      1.40812      .   S
    C320   C237      1.36224      .   S
    C320   C295      1.40812      .   S
    C5     C4        1.36224      .   S
    C5     C319      1.40812      .   S
    C212   C259      1.36224      .   S
    C209   C256      1.36224      .   S
    C4     C269      1.36224      .   S
    C248   C331      1.36224      .   S
    C245   C328      1.36224      .   S
    C202   C270      1.36224      .   S
    C237   C341      1.36224      .   S
    C238   C342      1.36224      .   S
    C316   C228      1.36224      .   S
    C282   C223      1.36224      .   S
    C319   C227      1.36224      .   S
    C281   C222      1.36224      .   S
    C305   C234      1.36224      .   S
    C306   C235      1.36224      .   S
    C295   C215      1.36224      .   S
    C292   C216      1.36224      .   S
    C259   C284      1.40812      .   S
    C270   C299      1.40812      .   S
    C269   C298      1.40812      .   S
    C256   C285      1.40812      .   S
    C342   C275      1.40812      .   S
    C331   C308      1.40812      .   S
    C328   C309      1.40812      .   S
    C341   C274      1.40812      .   S
    C215   C274      1.36224      .   S
    C215   C167      1.50472      .   S
    C235   C309      1.36224      .   S
    C235   C187      1.50472      .   S
    C234   C308      1.36224      .   S
    C234   C188      1.50472      .   S
    C216   C275      1.36224      .   S
    C216   C166      1.50472      .   S
    C228   C299      1.36224      .   S
    C228   C178      1.50472      .   S
    C222   C284      1.36224      .   S
    C222   C176      1.50472      .   S
    C227   C298      1.36224      .   S
    C227   C179      1.50472      .   S
    C223   C285      1.36224      .   S
    C223   C175      1.50472      .   S
    O85    C188      1.25634      .   S
    O75    C167      1.25634      .   S
    O75    Zr16      2.23338  1_655   S
    O96    C178      1.25634      .   S
    O96    Zr22      2.23338      .   S
    O62    C175      1.25634      .   S
    O61    C176      1.25634      .   S
    O61    Zr16      2.23338      .   S
    O72    C166      1.25634      .   S
    O86    C187      1.25634      .   S
    O86    Zr22      2.23338  1_565   S
    O99    C179      1.25634      .   S
    C166   O55       1.25634      .   S
    C188   O88       1.25634      .   S
    C175   O65       1.25634      .   S
    C176   O64       1.25634      .   S
    C167   O54       1.25634      .   S
    C178   O79       1.25634      .   S
    C187   O89       1.25634      .   S
    C179   O78       1.25634      .   S
    Zr22   O139      2.10734  1_545   S
    Zr22   O146      2.10734      .   S
    Zr22   O145      2.10734  1_545   S
    Zr16   O132      2.10734  1_455   S
    Zr16   O137      2.10734  1_455   S
    O139   Zr17      2.10734  1_565   S
    O140   Zr19      2.10734      .   S
    O140   Zr18      2.10734      .   S
    O131   Zr11      2.10734      .   S
    O131   Zr14      2.10734      .   S
    O132   Zr13      2.10734  1_655   S
    O146   Zr17      2.10734      .   S
    O145   Zr18      2.10734  1_565   S
    O137   Zr14      2.10734  1_655   S
    O138   Zr11      2.10734      .   S
    O138   Zr13      2.10734      .   S
    C276   C314      1.40812      .   S
    C276   C217      1.36224      .   S
    C277   C313      1.40812      .   S
    C277   C218      1.36224      .   S
    C278   C312      1.40812      .   S
    C278   C219      1.36224      .   S
    C279   C315      1.40812      .   S
    C279   C220      1.36224      .   S
    C288   C302      1.40812      .   S
    C288   C217      1.36224      .   S
    C289   C301      1.40812      .   S
    C289   C220      1.36224      .   S
    C172   C218      1.50472      .   S
    C172   O57       1.25634      .   S
    C172   O71       1.25634      .   S
    C302   C231      1.36224      .   S
    C312   C229      1.36224      .   S
    C313   C232      1.36224      .   S
    C232   C303      1.36224      .   S
    C232   C182      1.50472      .   S
    C231   C314      1.36224      .   S
    C231   C183      1.50472      .   S
    C230   C315      1.36224      .   S
    C230   C301      1.36224      .   S
    C230   C184      1.50472      .   S
    C303   C291      1.40812      .   S
    C217   C173      1.50472      .   S
    C229   C300      1.36224      .   S
    C229   C185      1.50472      .   S
    C300   C290      1.40812      .   S
    C291   C218      1.36224      .   S
    C220   C170      1.50472      .   S
    C290   C219      1.36224      .   S
    C219   C171      1.50472      .   S
    O81    Zr20      2.23338      .   S
    O81    C184      1.25634      .   S
    Zr20   O90       2.23338      .   S
    Zr19   O80       2.23338      .   S
    Zr19   O142      2.10734      .   S
    Zr19   O91       2.23338      .   S
    Zr18   O94       2.23338  1_545   S
    Zr18   O141      2.10734  1_545   S
    Zr18   O143      2.10734      .   S
    Zr18   O77       2.23338      .   S
    Zr17   O95       2.23338  1_545   S
    Zr17   O144      2.10734  1_545   S
    Zr17   O76       2.23338      .   S
    O56    C173      1.25634      .   S
    O58    C171      1.25634      .   S
    O58    Zr14      2.23338  1_655   S
    O59    C170      1.25634      .   S
    O59    Zr13      2.23338  1_655   S
    C170   O69       1.25634      .   S
    O68    C173      1.25634      .   S
    O68    Zr11      2.23338      .   S
    C171   O70       1.25634      .   S
    O69    Zr12      2.23338      .   S
    O94    C183      1.25634      .   S
    Zr11   O136      2.10734      .   S
    Zr11   O52       2.23338      .   S
    O80    C185      1.25634      .   S
    Zr12   O53       2.23338      .   S
    Zr13   O134      2.10734      .   S
    Zr13   O135      2.10734  1_455   S
    Zr13   O67       2.23338      .   S
    O82    C183      1.25634      .   S
    O83    C182      1.25634      .   S
    C185   O92       1.25634      .   S
    C184   O95       1.25634      .   S
    Zr14   O133      2.10734  1_455   S
    Zr14   O136      2.10734      .   S
    Zr14   O66       2.23338      .   S
    C182   O93       1.25634      .   S
    O133   Zr15      2.10734  1_655   S
    O134   Zr15      2.10734      .   S
    O135   Zr15      2.10734  1_655   S
    O141   Zr21      2.10734  1_565   S
    O142   Zr21      2.10734      .   S
    O143   Zr21      2.10734      .   S
    O144   Zr21      2.10734  1_565   S
    O66    C174      1.25634      .   S
    O77    C180      1.25634      .   S
    O76    C181      1.25634      .   S
    O67    C177      1.25634      .   S
    O91    C189      1.25634      .   S
    O90    C186      1.25634      .   S
    O53    C168      1.25634      .   S
    O52    C169      1.25634      .   S
    Zr21   O97       2.23338      .   S
    Zr21   O87       2.23338  1_545   S
    Zr15   O74       2.23338  1_455   S
    Zr15   O60       2.23338      .   S
    C168   O74       1.25634      .   S
    C168   C214      1.50472      .   S
    C186   O87       1.25634      .   S
    C186   C236      1.50472      .   S
    C189   O84       1.25634      .   S
    C189   C233      1.50472      .   S
    C169   O73       1.25634      .   S
    C169   C213      1.50472      .   S
    C180   O98       1.25634      .   S
    C180   C226      1.50472      .   S
    C177   O60       1.25634      .   S
    C177   C221      1.50472      .   S
    C174   O63       1.25634      .   S
    C174   C224      1.50472      .   S
    C181   O97       1.25634      .   S
    C181   C225      1.50472      .   S
    C287   C221      1.36224      .   S
    C287   C258      1.40812      .   S
    C272   C213      1.36224      .   S
    C272   C343      1.40812      .   S
    C286   C224      1.36224      .   S
    C286   C257      1.40812      .   S
    C273   C214      1.36224      .   S
    C273   C340      1.40812      .   S
    C296   C225      1.36224      .   S
    C296   C271      1.40812      .   S
    C297   C226      1.36224      .   S
    C297   C268      1.40812      .   S
    C310   C236      1.36224      .   S
    C310   C329      1.40812      .   S
    C311   C233      1.36224      .   S
    C311   C330      1.40812      .   S
    C213   C293      1.36224      .   S
    C236   C307      1.36224      .   S
    C214   C294      1.36224      .   S
    C221   C280      1.36224      .   S
    C224   C283      1.36224      .   S
    C225   C317      1.36224      .   S
    C226   C318      1.36224      .   S
    C233   C304      1.36224      .   S
    C330   C247      1.36224      .   S
    C329   C246      1.36224      .   S
    C271   C203      1.36224      .   S
    C340   C240      1.36224      .   S
    C343   C239      1.36224      .   S
    C268   C204      1.36224      .   S
    C257   C210      1.36224      .   S
    C258   C211      1.36224      .   S
    C280   C261      1.40812      .   S
    C283   C260      1.40812      .   S
    C317   C250      1.40812      .   S
    C307   C332      1.40812      .   S
    C318   C251      1.40812      .   S
    C304   C333      1.40812      .   S
    C294   C323      1.40812      .   S
    C293   C322      1.40812      .   S
    C239   C322      1.36224      .   S
    C239   C191      1.50472      .   S
    C240   C323      1.36224      .   S
    C240   C190      1.50472      .   S
    C246   C332      1.36224      .   S
    C246   C200      1.50472      .   S
    C247   C333      1.36224      .   S
    C247   C199      1.50472      .   S
    C203   C250      1.36224      .   S
    C203   C155      1.50472      .   S
    C204   C251      1.36224      .   S
    C211   C261      1.36224      .   S
    C211   C163      1.50472      .   S
    C210   C260      1.36224      .   S
    C210   C164      1.50472      .   S
    O38    C163      1.25634      .   S
    O38    Zr10      2.23338  1_565   S
    O37    C164      1.25634      .   S
    O51    C155      1.25634      .   S
    O51    Zr10      2.23338  1_655   S
    O110   C199      1.25634      .   S
    O109   C200      1.25634      .   S
    O109   Zr28      2.23338      .   S
    O123   C191      1.25634      .   S
    O120   C190      1.25634      .   S
    O120   Zr28      2.23338      .   S
    C155   O30       1.25634      .   S
    C163   O41       1.25634      .   S
    C164   O40       1.25634      .   S
    C199   O113      1.25634      .   S
    C190   O103      1.25634      .   S
    C191   O102      1.25634      .   S
    C200   O112      1.25634      .   S
    Zr10   O124      2.10734  1_455   S
    Zr10   O130      2.10734      .   S
    O1     Zr0       2.23338      .   S
    O2     Zr8       2.10734  1_556   S
    O29    Zr6       2.23338      .   S
    O32    Zr7       2.23338      .   S
    O33    Zr8       2.23338      .   S
    O36    Zr9       2.23338      .   S
    O37    Zr10      2.23338      .   S
    O43    Zr7       2.23338      .   S
    O44    Zr0       2.23338      .   S
    O45    Zr6       2.23338      .   S
    O48    Zr10      2.23338      .   S
    O49    Zr9       2.23338      .   S
    O54    Zr12      2.23338      .   S
    O55    Zr11      2.23338      .   S
    O56    Zr13      2.23338      .   S
    O57    Zr14      2.23338      .   S
    O62    Zr16      2.23338      .   S
    O63    Zr15      2.23338      .   S
    O64    Zr13      2.23338      .   S
    O65    Zr14      2.23338      .   S
    O70    Zr12      2.23338      .   S
    O71    Zr11      2.23338      .   S
    O72    Zr16      2.23338      .   S
    O73    Zr15      2.23338      .   S
    O78    Zr18      2.23338      .   S
    O79    Zr17      2.23338      .   S
    O82    Zr20      2.23338      .   S
    O83    Zr19      2.23338      .   S
    O84    Zr21      2.23338      .   S
    O85    Zr22      2.23338      .   S
    O88    Zr19      2.23338      .   S
    O89    Zr20      2.23338      .   S
    O92    Zr17      2.23338      .   S
    O93    Zr18      2.23338      .   S
    O98    Zr21      2.23338      .   S
    O99    Zr22      2.23338      .   S
    O100   Zr23      2.23338      .   S
    O101   Zr24      2.23338      .   S
    O106   Zr26      2.23338      .   S
    O107   Zr25      2.23338      .   S
    O110   Zr28      2.23338      .   S
    O111   Zr27      2.23338      .   S
    O114   Zr26      2.23338      .   S
    O115   Zr25      2.23338      .   S
    O118   Zr24      2.23338      .   S
    O119   Zr23      2.23338      .   S
    O122   Zr27      2.23338      .   S
    O123   Zr28      2.23338      .   S
    O124   Zr7       2.10734  1_656   S
    O125   Zr8       2.10734  1_655   S
    O126   Zr0       2.10734      .   S
    O127   Zr6       2.10734      .   S
    O128   Zr8       2.10734      .   S
    O129   Zr10      2.10734  1_665   S
    O130   Zr7       2.10734  1_556   S
    O131   Zr16      2.10734      .   S
    O132   Zr12      2.10734      .   S
    O133   Zr12      2.10734      .   S
    O134   Zr11      2.10734      .   S
    O135   Zr12      2.10734      .   S
    O136   Zr15      2.10734      .   S
    O137   Zr12      2.10734      .   S
    O138   Zr16      2.10734      .   S
    O139   Zr20      2.10734      .   S
    O140   Zr22      2.10734      .   S
    O141   Zr20      2.10734      .   S
    O142   Zr17      2.10734      .   S
    O143   Zr19      2.10734      .   S
    O144   Zr20      2.10734      .   S
    O145   Zr20      2.10734      .   S
    O146   Zr19      2.10734      .   S
    O147   Zr28      2.10734      .   S
    O148   Zr28      2.10734      .   S
    O149   Zr26      2.10734      .   S
    O150   Zr23      2.10734      .   S
    O151   Zr25      2.10734      .   S
    O152   Zr23      2.10734      .   S
    O153   Zr28      2.10734      .   S
    O154   Zr28      2.10734      .   S
