# CIF file generated by openbabel 2.4.90, see http://openbabel.sf.net
data_I
_chemical_name_common ''
_cell_length_a 11.184
_cell_length_b 11.184
_cell_length_c 14.591
_cell_angle_alpha 90
_cell_angle_beta 90
_cell_angle_gamma 120
_space_group_name_H-M_alt 'P 1'
_space_group_name_Hall 'P 1'
loop_
    _symmetry_equiv_pos_as_xyz
    x,y,z
loop_
    _atom_site_label
    _atom_site_type_symbol
    _atom_site_fract_x
    _atom_site_fract_y
    _atom_site_fract_z
    _atom_site_occupancy
    Fe0     Fe   0.76900   0.23700   0.25000   1.000
    O1      O    0.66600   0.33300   0.25000   1.000
    O2      O    0.89300   0.37000   0.15100   1.000
    O3      O    0.88100   0.55900   0.15400   1.000
    C4      C    0.91900   0.48200   0.11400   1.000
    C5      C    0.93500   0.48200   0.01900   1.000
    Fe6     Fe   0.76300   0.53200   0.25000   1.000
    Fe7     Fe   0.46800   0.23100   0.25000   1.000
    Fe8     Fe   0.23100   0.46800   0.75000   1.000
    Fe9     Fe   0.23700   0.76900   0.75000   1.000
    Fe10    Fe   0.53200   0.76300   0.75000   1.000
    O11     O    0.10700   0.47700   0.84900   1.000
    O12     O    0.89300   0.37000   0.34900   1.000
    O13     O    0.10700   0.47700   0.65100   1.000
    O14     O    0.47700   0.10700   0.15100   1.000
    O15     O    0.37000   0.89300   0.84900   1.000
    O16     O    0.63000   0.52300   0.15100   1.000
    O17     O    0.63000   0.52300   0.34900   1.000
    O18     O    0.47700   0.10700   0.34900   1.000
    O19     O    0.11900   0.67800   0.84600   1.000
    O20     O    0.88100   0.55900   0.34600   1.000
    O21     O    0.11900   0.67800   0.65400   1.000
    O22     O    0.67800   0.11900   0.15400   1.000
    O23     O    0.55900   0.88100   0.84600   1.000
    O24     O    0.67800   0.11900   0.34600   1.000
    O25     O    0.44100   0.32200   0.15400   1.000
    O26     O    0.44100   0.32200   0.34600   1.000
    C27     C    0.08100   0.56300   0.88600   1.000
    C28     C    0.91900   0.48200   0.38600   1.000
    C29     C    0.08100   0.56300   0.61400   1.000
    C30     C    0.56300   0.08100   0.11400   1.000
    C31     C    0.48200   0.91900   0.88600   1.000
    C32     C    0.06500   0.54700   0.98100   1.000
    C33     C    0.93500   0.48200   0.48100   1.000
    C34     C    0.06500   0.54700   0.51900   1.000
    C35     C    0.54700   0.06500   0.01900   1.000
    C36     C    0.48200   0.93500   0.98100   1.000
    O37     O    0.66700   0.33300   0.25000   1.000
    O38     O    0.66700   0.33400   0.25000   1.000
    O39     O    0.33300   0.66600   0.75000   1.000
    O40     O    0.33300   0.66700   0.75000   1.000
    O41     O    0.33400   0.66700   0.75000   1.000
    O42     O    0.52300   0.63000   0.84900   1.000
    O43     O    0.37000   0.89300   0.65100   1.000
    O44     O    0.52300   0.63000   0.65100   1.000
    O45     O    0.32200   0.44100   0.84600   1.000
    O46     O    0.55900   0.88100   0.65400   1.000
    O47     O    0.32200   0.44100   0.65400   1.000
    C48     C    0.51800   0.43700   0.11400   1.000
    C49     C    0.51800   0.43700   0.38600   1.000
    C50     C    0.56300   0.08100   0.38600   1.000
    C51     C    0.43700   0.51800   0.88600   1.000
    C52     C    0.48200   0.91900   0.61400   1.000
    C53     C    0.43700   0.51800   0.61400   1.000
    C54     C    0.51800   0.45300   0.01900   1.000
    C55     C    0.51800   0.45300   0.48100   1.000
    C56     C    0.54700   0.06500   0.48100   1.000
    C57     C    0.45300   0.51800   0.98100   1.000
    C58     C    0.48200   0.93500   0.51900   1.000
    C59     C    0.45300   0.51800   0.51900   1.000
loop_
    _geom_bond_atom_site_label_1
    _geom_bond_atom_site_label_2
    _geom_bond_distance
    _geom_bond_site_symmetry_2
    _ccdc_geom_bond_type
    Fe8    O47       1.84293      .   S
    Fe8    O39       1.91805      .   S
    Fe8    O45       1.84293      .   S
    Fe9    O19       1.84293      .   S
    Fe9    O21       1.84293      .   S
    Fe9    O40       1.91805      .   S
    Fe10   O23       1.84293      .   S
    Fe10   O46       1.84293      .   S
    Fe10   O41       1.91805      .   S
    O23    C31       1.27627      .   S
    O19    C27       1.27627      .   S
    O15    C31       1.25730      .   S
    O11    C27       1.25730      .   S
    C31    C36       1.39765      .   S
    C27    C32       1.39765      .   S
    C32    C5        1.37580  1_456   S
    C36    C35       1.37580  1_566   S
    C35    C30       1.39765      .   S
    C5     C4        1.39765      .   S
    C54    C48       1.39765      .   S
    C54    C57       1.37580  1_554   S
    C4     O2        1.25730      .   S
    C4     O3        1.27627      .   S
    C48    O16       1.25730      .   S
    C48    O25       1.27627      .   S
    C30    O14       1.25730      .   S
    C30    O22       1.27627      .   S
    O3     Fe6       1.84293      .   S
    O25    Fe7       1.84293      .   S
    O22    Fe0       1.84293      .   S
    O37    Fe0       1.91805      .   S
    O38    Fe6       1.91805      .   S
    Fe7    O1        1.91805      .   S
    Fe7    O26       1.84293      .   S
    Fe6    O20       1.84293      .   S
    Fe0    O24       1.84293      .   S
    O20    C28       1.27627      .   S
    O24    C50       1.27627      .   S
    O26    C49       1.27627      .   S
    O17    C49       1.25730      .   S
    O12    C28       1.25730      .   S
    O18    C50       1.25730      .   S
    C49    C55       1.39765      .   S
    C28    C33       1.39765      .   S
    C50    C56       1.39765      .   S
    C56    C58       1.37580  1_545   S
    C55    C59       1.37580      .   S
    C33    C34       1.37580  1_655   S
    C34    C29       1.39765      .   S
    C58    C52       1.39765      .   S
    C59    C53       1.39765      .   S
    C53    O44       1.25730      .   S
    C53    O47       1.27627      .   S
    C29    O13       1.25730      .   S
    C29    O21       1.27627      .   S
    C52    O43       1.25730      .   S
    C52    O46       1.27627      .   S
    O45    C51       1.27627      .   S
    O42    C51       1.25730      .   S
    C51    C57       1.39765      .   S
    O1     Fe0       1.92784      .   S
    O1     Fe6       1.92764      .   S
    O2     Fe0       2.03951      .   S
    O11    Fe8       2.03951      .   S
    O12    Fe0       2.03951      .   S
    O13    Fe8       2.03951      .   S
    O14    Fe7       2.03951      .   S
    O15    Fe9       2.03951      .   S
    O16    Fe6       2.03951      .   S
    O17    Fe6       2.03951      .   S
    O18    Fe7       2.03951      .   S
    O37    Fe6       1.92784      .   S
    O37    Fe7       1.92764      .   S
    O38    Fe0       1.92764      .   S
    O38    Fe7       1.92784      .   S
    O39    Fe9       1.92784      .   S
    O39    Fe10      1.92764      .   S
    O40    Fe8       1.92764      .   S
    O40    Fe10      1.92784      .   S
    O41    Fe8       1.92784      .   S
    O41    Fe9       1.92764      .   S
    O42    Fe10      2.03951      .   S
    O43    Fe9       2.03951      .   S
    O44    Fe10      2.03951      .   S
