# CIF file generated by openbabel 2.4.90, see http://openbabel.sf.net
data_I
_chemical_name_common ''
_cell_length_a 11.184
_cell_length_b 11.184
_cell_length_c 14.591
_cell_angle_alpha 90
_cell_angle_beta 90
_cell_angle_gamma 120
_space_group_name_H-M_alt 'P 1'
_space_group_name_Hall 'P 1'
loop_
    _symmetry_equiv_pos_as_xyz
    x,y,z
loop_
    _atom_site_label
    _atom_site_type_symbol
    _atom_site_fract_x
    _atom_site_fract_y
    _atom_site_fract_z
    _atom_site_occupancy
    Fe0     Fe   0.76900   0.23700   0.25000   1.000
    Fe1     Fe   0.76300   0.53200   0.25000   1.000
    Fe2     Fe   0.46800   0.23100   0.25000   1.000
    Fe3     Fe   0.23100   0.46800   0.75000   1.000
    Fe4     Fe   0.23700   0.76900   0.75000   1.000
    Fe5     Fe   0.53200   0.76300   0.75000   1.000
