# CIF file generated by openbabel 2.4.90, see http://openbabel.sf.net
data_I
_chemical_name_common ''
_cell_length_a 11.184
_cell_length_b 11.184
_cell_length_c 14.591
_cell_angle_alpha 90
_cell_angle_beta 90
_cell_angle_gamma 120
_space_group_name_H-M_alt 'P 1'
_space_group_name_Hall 'P 1'
loop_
    _symmetry_equiv_pos_as_xyz
    x,y,z
loop_
    _atom_site_label
    _atom_site_type_symbol
    _atom_site_fract_x
    _atom_site_fract_y
    _atom_site_fract_z
    _atom_site_occupancy
    Zr0     Zr   0.76900   0.23700   0.25000   1.000
    Zr1     Zr   0.76300   0.53200   0.25000   1.000
    Zr2     Zr   0.46800   0.23100   0.25000   1.000
    Zr3     Zr   0.23100   0.46800   0.75000   1.000
    Zr4     Zr   0.23700   0.76900   0.75000   1.000
    Zr5     Zr   0.53200   0.76300   0.75000   1.000
    N6      N    0.51975   0.00000   0.00000   1.000
    O7      O    0.49613   0.08450   0.10025   1.000
    O8      O    0.41163   0.91550   0.89975   1.000
    O9      O    0.62163   0.08900   0.10100   1.000
    O10     O    0.53263   0.91100   0.89900   1.000
    N11     N    0.48025   0.48025   0.50000   1.000
    O12     O    0.58837   0.50387   0.39975   1.000
    O13     O    0.37838   0.46738   0.60100   1.000
    O14     O    0.46738   0.37838   0.39900   1.000
    O15     O    0.50387   0.58837   0.60025   1.000
    N16     N    0.48025   0.48025   0.00000   1.000
    O17     O    0.50387   0.58837   0.89975   1.000
    O18     O    0.58837   0.50387   0.10025   1.000
    O19     O    0.37837   0.46737   0.89900   1.000
    O20     O    0.46738   0.37837   0.10100   1.000
    N21     N    0.00000   0.51975   0.00000   1.000
    O22     O    0.91100   0.53263   0.10100   1.000
    O23     O    0.91550   0.41163   0.10025   1.000
    O24     O    0.08450   0.49613   0.89975   1.000
    O25     O    0.08900   0.62162   0.89900   1.000
    N26     N    0.51975   0.00000   0.50000   1.000
    O27     O    0.41163   0.91550   0.60025   1.000
    O28     O    0.53263   0.91100   0.60100   1.000
    O29     O    0.49612   0.08450   0.39975   1.000
    O30     O    0.62162   0.08900   0.39900   1.000
    N31     N    0.66700   0.33300   0.25000   1.000
    O32     O    0.69250   0.30900   0.25000   1.000
    O33     O    0.69100   0.38275   0.25000   1.000
    O34     O    0.61725   0.30750   0.25000   1.000
    N35     N    0.00000   0.51975   0.50000   1.000
    O36     O    0.08450   0.49612   0.60025   1.000
    O37     O    0.08900   0.62162   0.60100   1.000
    O38     O    0.91550   0.41162   0.39975   1.000
    O39     O    0.91100   0.53262   0.39900   1.000
    N40     N    0.33300   0.66600   0.75000   1.000
    O41     O    0.30750   0.61650   0.75000   1.000
    O42     O    0.30900   0.69175   0.75000   1.000
    O43     O    0.38275   0.69025   0.75000   1.000
    N44     N    0.66600   0.33300   0.25000   1.000
    O45     O    0.61650   0.30750   0.25000   1.000
    O46     O    0.69175   0.30900   0.25000   1.000
    O47     O    0.69025   0.38275   0.25000   1.000
    N48     N    0.33400   0.66700   0.75000   1.000
    O49     O    0.38350   0.69100   0.75000   1.000
    O50     O    0.30825   0.61725   0.75000   1.000
    O51     O    0.30975   0.69250   0.75000   1.000
    N52     N    0.33300   0.66700   0.75000   1.000
    O53     O    0.30900   0.69250   0.75000   1.000
    O54     O    0.30750   0.61725   0.75000   1.000
    O55     O    0.38275   0.69100   0.75000   1.000
    N56     N    0.66700   0.33400   0.25000   1.000
    O57     O    0.69100   0.38350   0.25000   1.000
    O58     O    0.69250   0.30975   0.25000   1.000
    O59     O    0.61725   0.30825   0.25000   1.000
loop_
    _geom_bond_atom_site_label_1
    _geom_bond_atom_site_label_2
    _geom_bond_distance
    _geom_bond_site_symmetry_2
    _ccdc_geom_bond_type
    N6     O7        1.83092      .   S
    Zr2    O7        2.84132      .   S
    N6     O8        1.83092  1_544   S
    Zr4    O8        2.84132      .   S
    N6     O9        1.82390      .   S
    Zr0    O9        2.73035      .   S
    N6     O10       1.82390  1_544   S
    Zr5    O10       2.73035      .   S
    N11    O12       1.83092      .   S
    Zr1    O12       2.84132      .   S
    N11    O13       1.82390      .   S
    Zr3    O13       2.73035      .   S
    N11    O14       1.82390      .   S
    Zr2    O14       2.73035      .   S
    N11    O15       1.83092      .   S
    Zr5    O15       2.84132      .   S
    N16    O17       1.83092  1_554   S
    Zr5    O17       2.84132      .   S
    N16    O18       1.83092      .   S
    Zr1    O18       2.84132      .   S
    N16    O19       1.82390  1_554   S
    Zr3    O19       2.73035      .   S
    N16    O20       1.82390      .   S
    Zr2    O20       2.73035      .   S
    N21    O22       1.82390  1_455   S
    Zr1    O22       2.73035      .   S
    N21    O23       1.83092  1_455   S
    Zr0    O23       2.84132      .   S
    N21    O24       1.83092  1_554   S
    Zr3    O24       2.84132      .   S
    N21    O25       1.82390  1_554   S
    Zr4    O25       2.73035      .   S
    N26    O27       1.83092  1_545   S
    Zr4    O27       2.84132      .   S
    N26    O28       1.82390  1_545   S
    Zr5    O28       2.73035      .   S
    N26    O29       1.83092      .   S
    Zr2    O29       2.84132      .   S
    N26    O30       1.82390      .   S
    Zr0    O30       2.73035      .   S
    N31    O32       0.47951      .   S
    Zr0    O32       1.43854      .   S
    N31    O33       0.48196      .   S
    Zr1    O33       1.44588      .   S
    N31    O34       0.48191      .   S
    Zr2    O34       1.44573      .   S
    N35    O36       1.83092      .   S
    Zr3    O36       2.84132      .   S
    N35    O37       1.82390      .   S
    Zr4    O37       2.73035      .   S
    N35    O38       1.83092  1_455   S
    Zr0    O38       2.84132      .   S
    N35    O39       1.82390  1_455   S
    Zr1    O39       2.73035      .   S
    N40    O41       0.47951      .   S
    Zr3    O41       1.43854      .   S
    N40    O42       0.48196      .   S
    Zr4    O42       1.44588      .   S
    N40    O43       0.48191      .   S
    Zr5    O43       1.44573      .   S
    N44    O45       0.47951      .   S
    Zr2    O45       1.43854      .   S
    N44    O46       0.48196      .   S
    Zr0    O46       1.44588      .   S
    N44    O47       0.48191      .   S
    Zr1    O47       1.44573      .   S
    N48    O49       0.47951      .   S
    Zr5    O49       1.43854      .   S
    N48    O50       0.48196      .   S
    Zr3    O50       1.44588      .   S
    N48    O51       0.48191      .   S
    Zr4    O51       1.44573      .   S
    N52    O53       0.47951      .   S
    Zr4    O53       1.43854      .   S
    N52    O54       0.48191      .   S
    Zr3    O54       1.44573      .   S
    N52    O55       0.48196      .   S
    Zr5    O55       1.44588      .   S
    N56    O57       0.47951      .   S
    Zr1    O57       1.43854      .   S
    N56    O58       0.48191      .   S
    Zr0    O58       1.44573      .   S
    N56    O59       0.48196      .   S
    Zr2    O59       1.44588      .   S
