# CIF file generated by openbabel 2.4.90, see http://openbabel.sf.net
data_I
_chemical_name_common ''
_cell_length_a 11.184
_cell_length_b 11.184
_cell_length_c 14.591
_cell_angle_alpha 90
_cell_angle_beta 90
_cell_angle_gamma 120
_space_group_name_H-M_alt 'P 1'
_space_group_name_Hall 'P 1'
loop_
    _symmetry_equiv_pos_as_xyz
    x,y,z
loop_
    _atom_site_label
    _atom_site_type_symbol
    _atom_site_fract_x
    _atom_site_fract_y
    _atom_site_fract_z
    _atom_site_occupancy
    Zr0     Zr   0.76900   0.23700   0.25000   1.000
    Zr1     Zr   0.76300   0.53200   0.25000   1.000
    Zr2     Zr   0.46800   0.23100   0.25000   1.000
    Zr3     Zr   0.23100   0.46800   0.75000   1.000
    Zr4     Zr   0.23700   0.76900   0.75000   1.000
    Zr5     Zr   0.53200   0.76300   0.75000   1.000
    N6      N    0.51975   0.00000   0.00000   1.000
    O7      O    0.49613   0.08450   0.10025   1.000
    O8      O    0.41163   0.91550   0.89975   1.000
    O9      O    0.62163   0.08900   0.10100   1.000
    O10     O    0.53263   0.91100   0.89900   1.000
    N11     N    0.00000   0.84020   0.00000   1.000
    N12     N    0.48025   0.48025   0.50000   1.000
    O13     O    0.58837   0.50387   0.39975   1.000
    O14     O    0.37838   0.46738   0.60100   1.000
    O15     O    0.46738   0.37838   0.39900   1.000
    O16     O    0.50387   0.58837   0.60025   1.000
    N17     N    0.48025   0.48025   0.00000   1.000
    O18     O    0.50387   0.58837   0.89975   1.000
    O19     O    0.58837   0.50387   0.10025   1.000
    O20     O    0.37837   0.46737   0.89900   1.000
    O21     O    0.46738   0.37837   0.10100   1.000
    N22     N    0.00000   0.51975   0.00000   1.000
    O23     O    0.91100   0.53263   0.10100   1.000
    O24     O    0.91550   0.41163   0.10025   1.000
    O25     O    0.08450   0.49613   0.89975   1.000
    O26     O    0.08900   0.62162   0.89900   1.000
    N27     N    0.76350   0.77800   0.75000   1.000
    O28     O    0.69875   0.78650   0.75000   1.000
    N29     N    0.15980   0.15980   0.00000   1.000
    N30     N    0.87700   0.44100   0.75000   1.000
    N31     N    0.01450   0.23650   0.75000   1.000
    O32     O    0.08775   0.30125   0.75000   1.000
    N33     N    0.84020   0.00000   0.00000   1.000
    N34     N    0.44100   0.87700   0.25000   1.000
    N35     N    0.66667   0.33333   0.83150   1.000
    N36     N    0.33333   0.66667   0.33150   1.000
    N37     N    0.33333   0.66667   0.16850   1.000
    N38     N    0.43600   0.55900   0.25000   1.000
    N39     N    0.66667   0.33333   0.66850   1.000
    N40     N    0.84020   0.00000   0.50000   1.000
    N41     N    0.00000   0.00000   0.50000   1.000
    N42     N    0.23650   0.01450   0.25000   1.000
    O43     O    0.30125   0.08775   0.25000   1.000
    N44     N    0.00000   0.00000   0.00000   1.000
    N45     N    0.00000   0.84020   0.50000   1.000
    N46     N    0.51975   0.00000   0.50000   1.000
    O47     O    0.41163   0.91550   0.60025   1.000
    O48     O    0.53263   0.91100   0.60100   1.000
    O49     O    0.49612   0.08450   0.39975   1.000
    O50     O    0.62162   0.08900   0.39900   1.000
    N51     N    0.66700   0.33300   0.25000   1.000
    O52     O    0.69250   0.30900   0.25000   1.000
    O53     O    0.69100   0.38275   0.25000   1.000
    O54     O    0.61725   0.30750   0.25000   1.000
    N55     N    0.77800   0.76350   0.25000   1.000
    O56     O    0.78650   0.69875   0.25000   1.000
    N57     N    0.98550   0.22200   0.25000   1.000
    O58     O    0.91225   0.21350   0.25000   1.000
    N59     N    0.00000   0.51975   0.50000   1.000
    O60     O    0.08450   0.49612   0.60025   1.000
    O61     O    0.08900   0.62162   0.60100   1.000
    O62     O    0.91550   0.41162   0.39975   1.000
    O63     O    0.91100   0.53262   0.39900   1.000
    N64     N    0.15980   0.15980   0.50000   1.000
    N65     N    0.55900   0.43600   0.75000   1.000
    N66     N    0.33300   0.66600   0.75000   1.000
    O67     O    0.30750   0.61650   0.75000   1.000
    O68     O    0.30900   0.69175   0.75000   1.000
    O69     O    0.38275   0.69025   0.75000   1.000
    N70     N    0.22200   0.98550   0.75000   1.000
    O71     O    0.21350   0.91225   0.75000   1.000
    N72     N    0.56400   0.12300   0.75000   1.000
    N73     N    0.66600   0.33300   0.25000   1.000
    O74     O    0.61650   0.30750   0.25000   1.000
    O75     O    0.69175   0.30900   0.25000   1.000
    O76     O    0.69025   0.38275   0.25000   1.000
    N77     N    0.12300   0.56400   0.25000   1.000
    N78     N    0.33400   0.66700   0.75000   1.000
    O79     O    0.38350   0.69100   0.75000   1.000
    O80     O    0.30825   0.61725   0.75000   1.000
    O81     O    0.30975   0.69250   0.75000   1.000
    N82     N    0.33300   0.66700   0.75000   1.000
    O83     O    0.30900   0.69250   0.75000   1.000
    O84     O    0.30750   0.61725   0.75000   1.000
    O85     O    0.38275   0.69100   0.75000   1.000
    N86     N    0.66700   0.33400   0.25000   1.000
    O87     O    0.69100   0.38350   0.25000   1.000
    O88     O    0.69250   0.30975   0.25000   1.000
    O89     O    0.61725   0.30825   0.25000   1.000
loop_
    _geom_bond_atom_site_label_1
    _geom_bond_atom_site_label_2
    _geom_bond_distance
    _geom_bond_site_symmetry_2
    _ccdc_geom_bond_type
    N6     O7        1.83092      .   S
    Zr2    O7        2.84132      .   S
    N6     O8        1.83092  1_544   S
    Zr4    O8        2.84132      .   S
    N6     O9        1.82390      .   S
    Zr0    O9        2.73035      .   S
    N6     O10       1.82390  1_544   S
    Zr5    O10       2.73035      .   S
    N12    O13       1.83092      .   S
    Zr1    O13       2.84132      .   S
    N12    O14       1.82390      .   S
    Zr3    O14       2.73035      .   S
    N12    O15       1.82390      .   S
    Zr2    O15       2.73035      .   S
    N12    O16       1.83092      .   S
    Zr5    O16       2.84132      .   S
    N17    O18       1.83092  1_554   S
    Zr5    O18       2.84132      .   S
    N17    O19       1.83092      .   S
    Zr1    O19       2.84132      .   S
    N17    O20       1.82390  1_554   S
    Zr3    O20       2.73035      .   S
    N17    O21       1.82390      .   S
    Zr2    O21       2.73035      .   S
    N22    O23       1.82390  1_455   S
    Zr1    O23       2.73035      .   S
    N22    O24       1.83092  1_455   S
    Zr0    O24       2.84132      .   S
    N22    O25       1.83092  1_554   S
    Zr3    O25       2.84132      .   S
    N22    O26       1.82390  1_554   S
    Zr4    O26       2.73035      .   S
    N27    O28       0.77608      .   S
    Zr5    O28       1.74840      .   S
    N31    O32       0.77608      .   S
    Zr3    O32       1.74840      .   S
    N42    O43       0.77608      .   S
    Zr2    O43       1.74840      .   S
    N46    O47       1.83092  1_545   S
    Zr4    O47       2.84132      .   S
    N46    O48       1.82390  1_545   S
    Zr5    O48       2.73035      .   S
    N46    O49       1.83092      .   S
    Zr2    O49       2.84132      .   S
    N46    O50       1.82390      .   S
    Zr0    O50       2.73035      .   S
    N51    O52       0.47951      .   S
    Zr0    O52       1.43854      .   S
    N51    O53       0.48196      .   S
    Zr1    O53       1.44588      .   S
    N51    O54       0.48191      .   S
    Zr2    O54       1.44573      .   S
    N55    O56       0.77608      .   S
    Zr1    O56       1.74840      .   S
    N57    O58       0.77608      .   S
    Zr0    O58       1.74840      .   S
    N59    O60       1.83092      .   S
    Zr3    O60       2.84132      .   S
    N59    O61       1.82390      .   S
    Zr4    O61       2.73035      .   S
    N59    O62       1.83092  1_455   S
    Zr0    O62       2.84132      .   S
    N59    O63       1.82390  1_455   S
    Zr1    O63       2.73035      .   S
    N66    O67       0.47951      .   S
    Zr3    O67       1.43854      .   S
    N66    O68       0.48196      .   S
    Zr4    O68       1.44588      .   S
    N66    O69       0.48191      .   S
    Zr5    O69       1.44573      .   S
    N70    O71       0.77608      .   S
    Zr4    O71       1.74840      .   S
    N73    O74       0.47951      .   S
    Zr2    O74       1.43854      .   S
    N73    O75       0.48196      .   S
    Zr0    O75       1.44588      .   S
    N73    O76       0.48191      .   S
    Zr1    O76       1.44573      .   S
    N78    O79       0.47951      .   S
    Zr5    O79       1.43854      .   S
    N78    O80       0.48196      .   S
    Zr3    O80       1.44588      .   S
    N78    O81       0.48191      .   S
    Zr4    O81       1.44573      .   S
    N82    O83       0.47951      .   S
    Zr4    O83       1.43854      .   S
    N82    O84       0.48191      .   S
    Zr3    O84       1.44573      .   S
    N82    O85       0.48196      .   S
    Zr5    O85       1.44588      .   S
    N86    O87       0.47951      .   S
    Zr1    O87       1.43854      .   S
    N86    O88       0.48191      .   S
    Zr0    O88       1.44573      .   S
    N86    O89       0.48196      .   S
    Zr2    O89       1.44588      .   S
