# CIF file generated by openbabel 2.4.90, see http://openbabel.sf.net
data_I
_chemical_name_common '?'
_cell_length_a 21.8827
_cell_length_b 21.8827
_cell_length_c 21.8827
_cell_angle_alpha 90
_cell_angle_beta 90
_cell_angle_gamma 90
_space_group_name_H-M_alt 'P 1'
_space_group_name_Hall 'P 1'
loop_
    _symmetry_equiv_pos_as_xyz
    x,y,z
loop_
    _atom_site_label
    _atom_site_type_symbol
    _atom_site_fract_x
    _atom_site_fract_y
    _atom_site_fract_z
    _atom_site_occupancy
    Fe0     Fe   0.23949   0.69773   0.81804   1.000
    O1      O    0.20410   0.34985   0.66800   1.000
    O2      O    0.22500   0.62535   0.76490   1.000
    O3      O    0.24470   0.39254   0.75233   1.000
    O4      O    0.18810   0.67056   0.68180   1.000
    C5      C    0.22150   0.39510   0.69940   1.000
    C6      C    0.21700   0.51050   0.70440   1.000
    H7      H    0.22327   0.50853   0.74642   1.000
    C8      C    0.21550   0.45720   0.67030   1.000
    C9      C    0.20860   0.62490   0.71050   1.000
    C10     C    0.20920   0.56690   0.67630   1.000
    C11     C    0.20890   0.46020   0.60810   1.000
    H12     H    0.20765   0.42441   0.58511   1.000
    N13     N    0.20220   0.52380   0.51410   1.000
    C14     C    0.20410   0.51590   0.57970   1.000
    C15     C    0.20320   0.56950   0.61290   1.000
    H16     H    0.19864   0.60686   0.59323   1.000
    O17     O    0.24044   0.75956   0.75956   1.000
    O18     O    0.23820   0.62560   0.89020   0.463
    Fe19    Fe   0.76051   0.30227   0.81804   1.000
    Fe20    Fe   0.76051   0.69773   0.18196   1.000
    Fe21    Fe   0.23949   0.30227   0.18196   1.000
    Fe22    Fe   0.81804   0.23949   0.69773   1.000
    Fe23    Fe   0.81804   0.76051   0.30227   1.000
    Fe24    Fe   0.18196   0.76051   0.69773   1.000
    Fe25    Fe   0.18196   0.23949   0.30227   1.000
    Fe26    Fe   0.69773   0.81804   0.23949   1.000
    Fe27    Fe   0.30227   0.81804   0.76051   1.000
    Fe28    Fe   0.69773   0.18196   0.76051   1.000
    Fe29    Fe   0.30227   0.18196   0.23949   1.000
    Fe30    Fe   0.19773   0.73949   0.31804   1.000
    Fe31    Fe   0.80227   0.26051   0.31804   1.000
    Fe32    Fe   0.19773   0.26051   0.68196   1.000
    Fe33    Fe   0.80227   0.73949   0.68196   1.000
    Fe34    Fe   0.73949   0.31804   0.19773   1.000
    Fe35    Fe   0.26051   0.31804   0.80227   1.000
    Fe36    Fe   0.26051   0.68196   0.19773   1.000
    Fe37    Fe   0.73949   0.68196   0.80227   1.000
    Fe38    Fe   0.31804   0.19773   0.73949   1.000
    Fe39    Fe   0.31804   0.80227   0.26051   1.000
    Fe40    Fe   0.68196   0.19773   0.26051   1.000
    Fe41    Fe   0.68196   0.80227   0.73949   1.000
    O42     O    0.79590   0.65015   0.66800   1.000
    O43     O    0.79590   0.34985   0.33200   1.000
    O44     O    0.20410   0.65015   0.33200   1.000
    O45     O    0.66800   0.20410   0.34985   1.000
    O46     O    0.66800   0.79590   0.65015   1.000
    O47     O    0.33200   0.79590   0.34985   1.000
    O48     O    0.33200   0.20410   0.65015   1.000
    O49     O    0.34985   0.66800   0.20410   1.000
    O50     O    0.65015   0.66800   0.79590   1.000
    O51     O    0.34985   0.33200   0.79590   1.000
    O52     O    0.65015   0.33200   0.20410   1.000
    O53     O    0.84985   0.70410   0.16800   1.000
    O54     O    0.15015   0.29590   0.16800   1.000
    O55     O    0.84985   0.29590   0.83200   1.000
    O56     O    0.15015   0.70410   0.83200   1.000
    O57     O    0.70410   0.16800   0.84985   1.000
    O58     O    0.29590   0.16800   0.15015   1.000
    O59     O    0.29590   0.83200   0.84985   1.000
    O60     O    0.70410   0.83200   0.15015   1.000
    O61     O    0.16800   0.84985   0.70410   1.000
    O62     O    0.16800   0.15015   0.29590   1.000
    O63     O    0.83200   0.84985   0.29590   1.000
    O64     O    0.83200   0.15015   0.70410   1.000
    O65     O    0.77500   0.37465   0.76490   1.000
    O66     O    0.77500   0.62535   0.23510   1.000
    O67     O    0.22500   0.37465   0.23510   1.000
    O68     O    0.76490   0.22500   0.62535   1.000
    O69     O    0.76490   0.77500   0.37465   1.000
    O70     O    0.23510   0.77500   0.62535   1.000
    O71     O    0.23510   0.22500   0.37465   1.000
    O72     O    0.62535   0.76490   0.22500   1.000
    O73     O    0.37465   0.76490   0.77500   1.000
    O74     O    0.62535   0.23510   0.77500   1.000
    O75     O    0.37465   0.23510   0.22500   1.000
    O76     O    0.12535   0.72500   0.26490   1.000
    O77     O    0.87465   0.27500   0.26490   1.000
    O78     O    0.12535   0.27500   0.73510   1.000
    O79     O    0.87465   0.72500   0.73510   1.000
    O80     O    0.72500   0.26490   0.12535   1.000
    O81     O    0.27500   0.26490   0.87465   1.000
    O82     O    0.27500   0.73510   0.12535   1.000
    O83     O    0.72500   0.73510   0.87465   1.000
    O84     O    0.26490   0.12535   0.72500   1.000
    O85     O    0.26490   0.87465   0.27500   1.000
    O86     O    0.73510   0.12535   0.27500   1.000
    O87     O    0.73510   0.87465   0.72500   1.000
    O88     O    0.75530   0.60746   0.75233   1.000
    O89     O    0.75530   0.39254   0.24767   1.000
    O90     O    0.24470   0.60746   0.24767   1.000
    O91     O    0.75233   0.24470   0.39254   1.000
    O92     O    0.75233   0.75530   0.60746   1.000
    O93     O    0.24767   0.75530   0.39254   1.000
    O94     O    0.24767   0.24470   0.60746   1.000
    O95     O    0.39254   0.75233   0.24470   1.000
    O96     O    0.60746   0.75233   0.75530   1.000
    O97     O    0.39254   0.24767   0.75530   1.000
    O98     O    0.60746   0.24767   0.24470   1.000
    O99     O    0.89254   0.74470   0.25233   1.000
    O100    O    0.10746   0.25530   0.25233   1.000
    O101    O    0.89254   0.25530   0.74767   1.000
    O102    O    0.10746   0.74470   0.74767   1.000
    O103    O    0.74470   0.25233   0.89254   1.000
    O104    O    0.25530   0.25233   0.10746   1.000
    O105    O    0.25530   0.74767   0.89254   1.000
    O106    O    0.74470   0.74767   0.10746   1.000
    O107    O    0.25233   0.89254   0.74470   1.000
    O108    O    0.25233   0.10746   0.25530   1.000
    O109    O    0.74767   0.89254   0.25530   1.000
    O110    O    0.74767   0.10746   0.74470   1.000
    O111    O    0.81190   0.32944   0.68180   1.000
    O112    O    0.81190   0.67056   0.31820   1.000
    O113    O    0.18810   0.32944   0.31820   1.000
    O114    O    0.68180   0.18810   0.67056   1.000
    O115    O    0.68180   0.81190   0.32944   1.000
    O116    O    0.31820   0.81190   0.67056   1.000
    O117    O    0.31820   0.18810   0.32944   1.000
    O118    O    0.67056   0.68180   0.18810   1.000
    O119    O    0.32944   0.68180   0.81190   1.000
    O120    O    0.67056   0.31820   0.81190   1.000
    O121    O    0.32944   0.31820   0.18810   1.000
    O122    O    0.17056   0.68810   0.18180   1.000
    O123    O    0.82944   0.31190   0.18180   1.000
    O124    O    0.17056   0.31190   0.81820   1.000
    O125    O    0.82944   0.68810   0.81820   1.000
    O126    O    0.68810   0.18180   0.17056   1.000
    O127    O    0.31190   0.18180   0.82944   1.000
    O128    O    0.31190   0.81820   0.17056   1.000
    O129    O    0.68810   0.81820   0.82944   1.000
    O130    O    0.18180   0.17056   0.68810   1.000
    O131    O    0.18180   0.82944   0.31190   1.000
    O132    O    0.81820   0.17056   0.31190   1.000
    O133    O    0.81820   0.82944   0.68810   1.000
    C134    C    0.77850   0.60490   0.69940   1.000
    C135    C    0.77850   0.39510   0.30060   1.000
    C136    C    0.22150   0.60490   0.30060   1.000
    C137    C    0.69940   0.22150   0.39510   1.000
    C138    C    0.69940   0.77850   0.60490   1.000
    C139    C    0.30060   0.77850   0.39510   1.000
    C140    C    0.30060   0.22150   0.60490   1.000
    C141    C    0.39510   0.69940   0.22150   1.000
    C142    C    0.60490   0.69940   0.77850   1.000
    C143    C    0.39510   0.30060   0.77850   1.000
    C144    C    0.60490   0.30060   0.22150   1.000
    C145    C    0.89510   0.72150   0.19940   1.000
    C146    C    0.10490   0.27850   0.19940   1.000
    C147    C    0.89510   0.27850   0.80060   1.000
    C148    C    0.10490   0.72150   0.80060   1.000
    C149    C    0.72150   0.19940   0.89510   1.000
    C150    C    0.27850   0.19940   0.10490   1.000
    C151    C    0.27850   0.80060   0.89510   1.000
    C152    C    0.72150   0.80060   0.10490   1.000
    C153    C    0.19940   0.89510   0.72150   1.000
    C154    C    0.19940   0.10490   0.27850   1.000
    C155    C    0.80060   0.89510   0.27850   1.000
    C156    C    0.80060   0.10490   0.72150   1.000
    C157    C    0.78300   0.48950   0.70440   1.000
    C158    C    0.78300   0.51050   0.29560   1.000
    C159    C    0.21700   0.48950   0.29560   1.000
    C160    C    0.70440   0.21700   0.51050   1.000
    C161    C    0.70440   0.78300   0.48950   1.000
    C162    C    0.29560   0.78300   0.51050   1.000
    C163    C    0.29560   0.21700   0.48950   1.000
    C164    C    0.51050   0.70440   0.21700   1.000
    C165    C    0.48950   0.70440   0.78300   1.000
    C166    C    0.51050   0.29560   0.78300   1.000
    C167    C    0.48950   0.29560   0.21700   1.000
    C168    C    0.01050   0.71700   0.20440   1.000
    C169    C    0.98950   0.28300   0.20440   1.000
    C170    C    0.01050   0.28300   0.79560   1.000
    C171    C    0.98950   0.71700   0.79560   1.000
    C172    C    0.71700   0.20440   0.01050   1.000
    C173    C    0.28300   0.20440   0.98950   1.000
    C174    C    0.28300   0.79560   0.01050   1.000
    C175    C    0.71700   0.79560   0.98950   1.000
    C176    C    0.20440   0.01050   0.71700   1.000
    C177    C    0.20440   0.98950   0.28300   1.000
    C178    C    0.79560   0.01050   0.28300   1.000
    C179    C    0.79560   0.98950   0.71700   1.000
    H180    H    0.77673   0.49147   0.74642   1.000
    H181    H    0.77673   0.50853   0.25358   1.000
    H182    H    0.22327   0.49147   0.25358   1.000
    H183    H    0.74642   0.22327   0.50853   1.000
    H184    H    0.74642   0.77673   0.49147   1.000
    H185    H    0.25358   0.77673   0.50853   1.000
    H186    H    0.25358   0.22327   0.49147   1.000
    H187    H    0.50853   0.74642   0.22327   1.000
    H188    H    0.49147   0.74642   0.77673   1.000
    H189    H    0.50853   0.25358   0.77673   1.000
    H190    H    0.49147   0.25358   0.22327   1.000
    H191    H    0.00853   0.72327   0.24642   1.000
    H192    H    0.99147   0.27673   0.24642   1.000
    H193    H    0.00853   0.27673   0.75358   1.000
    H194    H    0.99147   0.72327   0.75358   1.000
    H195    H    0.72327   0.24642   0.00853   1.000
    H196    H    0.27673   0.24642   0.99147   1.000
    H197    H    0.27673   0.75358   0.00853   1.000
    H198    H    0.72327   0.75358   0.99147   1.000
    H199    H    0.24642   0.00853   0.72327   1.000
    H200    H    0.24642   0.99147   0.27673   1.000
    H201    H    0.75358   0.00853   0.27673   1.000
    H202    H    0.75358   0.99147   0.72327   1.000
    C203    C    0.78450   0.54280   0.67030   1.000
    C204    C    0.78450   0.45720   0.32970   1.000
    C205    C    0.21550   0.54280   0.32970   1.000
    C206    C    0.67030   0.21550   0.45720   1.000
    C207    C    0.67030   0.78450   0.54280   1.000
    C208    C    0.32970   0.78450   0.45720   1.000
    C209    C    0.32970   0.21550   0.54280   1.000
    C210    C    0.45720   0.67030   0.21550   1.000
    C211    C    0.54280   0.67030   0.78450   1.000
    C212    C    0.45720   0.32970   0.78450   1.000
    C213    C    0.54280   0.32970   0.21550   1.000
    C214    C    0.95720   0.71550   0.17030   1.000
    C215    C    0.04280   0.28450   0.17030   1.000
    C216    C    0.95720   0.28450   0.82970   1.000
    C217    C    0.04280   0.71550   0.82970   1.000
    C218    C    0.71550   0.17030   0.95720   1.000
    C219    C    0.28450   0.17030   0.04280   1.000
    C220    C    0.28450   0.82970   0.95720   1.000
    C221    C    0.71550   0.82970   0.04280   1.000
    C222    C    0.17030   0.95720   0.71550   1.000
    C223    C    0.17030   0.04280   0.28450   1.000
    C224    C    0.82970   0.95720   0.28450   1.000
    C225    C    0.82970   0.04280   0.71550   1.000
    C226    C    0.79140   0.37510   0.71050   1.000
    C227    C    0.79140   0.62490   0.28950   1.000
    C228    C    0.20860   0.37510   0.28950   1.000
    C229    C    0.71050   0.20860   0.62490   1.000
    C230    C    0.71050   0.79140   0.37510   1.000
    C231    C    0.28950   0.79140   0.62490   1.000
    C232    C    0.28950   0.20860   0.37510   1.000
    C233    C    0.62490   0.71050   0.20860   1.000
    C234    C    0.37510   0.71050   0.79140   1.000
    C235    C    0.62490   0.28950   0.79140   1.000
    C236    C    0.37510   0.28950   0.20860   1.000
    C237    C    0.12490   0.70860   0.21050   1.000
    C238    C    0.87510   0.29140   0.21050   1.000
    C239    C    0.12490   0.29140   0.78950   1.000
    C240    C    0.87510   0.70860   0.78950   1.000
    C241    C    0.70860   0.21050   0.12490   1.000
    C242    C    0.29140   0.21050   0.87510   1.000
    C243    C    0.29140   0.78950   0.12490   1.000
    C244    C    0.70860   0.78950   0.87510   1.000
    C245    C    0.21050   0.12490   0.70860   1.000
    C246    C    0.21050   0.87510   0.29140   1.000
    C247    C    0.78950   0.12490   0.29140   1.000
    C248    C    0.78950   0.87510   0.70860   1.000
    C249    C    0.79080   0.43310   0.67630   1.000
    C250    C    0.79080   0.56690   0.32370   1.000
    C251    C    0.20920   0.43310   0.32370   1.000
    C252    C    0.67630   0.20920   0.56690   1.000
    C253    C    0.67630   0.79080   0.43310   1.000
    C254    C    0.32370   0.79080   0.56690   1.000
    C255    C    0.32370   0.20920   0.43310   1.000
    C256    C    0.56690   0.67630   0.20920   1.000
    C257    C    0.43310   0.67630   0.79080   1.000
    C258    C    0.56690   0.32370   0.79080   1.000
    C259    C    0.43310   0.32370   0.20920   1.000
    C260    C    0.06690   0.70920   0.17630   1.000
    C261    C    0.93310   0.29080   0.17630   1.000
    C262    C    0.06690   0.29080   0.82370   1.000
    C263    C    0.93310   0.70920   0.82370   1.000
    C264    C    0.70920   0.17630   0.06690   1.000
    C265    C    0.29080   0.17630   0.93310   1.000
    C266    C    0.29080   0.82370   0.06690   1.000
    C267    C    0.70920   0.82370   0.93310   1.000
    C268    C    0.17630   0.06690   0.70920   1.000
    C269    C    0.17630   0.93310   0.29080   1.000
    C270    C    0.82370   0.06690   0.29080   1.000
    C271    C    0.82370   0.93310   0.70920   1.000
    C272    C    0.79110   0.53980   0.60810   1.000
    C273    C    0.79110   0.46020   0.39190   1.000
    C274    C    0.20890   0.53980   0.39190   1.000
    C275    C    0.60810   0.20890   0.46020   1.000
    C276    C    0.60810   0.79110   0.53980   1.000
    C277    C    0.39190   0.79110   0.46020   1.000
    C278    C    0.39190   0.20890   0.53980   1.000
    C279    C    0.46020   0.60810   0.20890   1.000
    C280    C    0.53980   0.60810   0.79110   1.000
    C281    C    0.46020   0.39190   0.79110   1.000
    C282    C    0.53980   0.39190   0.20890   1.000
    C283    C    0.96020   0.70890   0.10810   1.000
    C284    C    0.03980   0.29110   0.10810   1.000
    C285    C    0.96020   0.29110   0.89190   1.000
    C286    C    0.03980   0.70890   0.89190   1.000
    C287    C    0.70890   0.10810   0.96020   1.000
    C288    C    0.29110   0.10810   0.03980   1.000
    C289    C    0.29110   0.89190   0.96020   1.000
    C290    C    0.70890   0.89190   0.03980   1.000
    C291    C    0.10810   0.96020   0.70890   1.000
    C292    C    0.10810   0.03980   0.29110   1.000
    C293    C    0.89190   0.96020   0.29110   1.000
    C294    C    0.89190   0.03980   0.70890   1.000
    H295    H    0.79235   0.57559   0.58511   1.000
    H296    H    0.79235   0.42441   0.41489   1.000
    H297    H    0.20765   0.57559   0.41489   1.000
    H298    H    0.58511   0.20765   0.42441   1.000
    H299    H    0.58511   0.79235   0.57559   1.000
    H300    H    0.41489   0.79235   0.42441   1.000
    H301    H    0.41489   0.20765   0.57559   1.000
    H302    H    0.42441   0.58511   0.20765   1.000
    H303    H    0.57559   0.58511   0.79235   1.000
    H304    H    0.42441   0.41489   0.79235   1.000
    H305    H    0.57559   0.41489   0.20765   1.000
    H306    H    0.92441   0.70765   0.08511   1.000
    H307    H    0.07559   0.29235   0.08511   1.000
    H308    H    0.92441   0.29235   0.91489   1.000
    H309    H    0.07559   0.70765   0.91489   1.000
    H310    H    0.70765   0.08511   0.92441   1.000
    H311    H    0.29235   0.08511   0.07559   1.000
    H312    H    0.29235   0.91489   0.92441   1.000
    H313    H    0.70765   0.91489   0.07559   1.000
    H314    H    0.08511   0.92441   0.70765   1.000
    H315    H    0.08511   0.07559   0.29235   1.000
    H316    H    0.91489   0.92441   0.29235   1.000
    H317    H    0.91489   0.07559   0.70765   1.000
    N318    N    0.79780   0.47620   0.51410   1.000
    N319    N    0.79780   0.52380   0.48590   1.000
    N320    N    0.20220   0.47620   0.48590   1.000
    N321    N    0.51410   0.20220   0.52380   1.000
    N322    N    0.51410   0.79780   0.47620   1.000
    N323    N    0.48590   0.79780   0.52380   1.000
    N324    N    0.48590   0.20220   0.47620   1.000
    N325    N    0.52380   0.51410   0.20220   1.000
    N326    N    0.47620   0.51410   0.79780   1.000
    N327    N    0.52380   0.48590   0.79780   1.000
    N328    N    0.47620   0.48590   0.20220   1.000
    N329    N    0.02380   0.70220   0.01410   1.000
    N330    N    0.97620   0.29780   0.01410   1.000
    N331    N    0.02380   0.29780   0.98590   1.000
    N332    N    0.97620   0.70220   0.98590   1.000
    N333    N    0.70220   0.01410   0.02380   1.000
    N334    N    0.29780   0.01410   0.97620   1.000
    N335    N    0.29780   0.98590   0.02380   1.000
    N336    N    0.70220   0.98590   0.97620   1.000
    N337    N    0.01410   0.02380   0.70220   1.000
    N338    N    0.01410   0.97620   0.29780   1.000
    N339    N    0.98590   0.02380   0.29780   1.000
    N340    N    0.98590   0.97620   0.70220   1.000
    C341    C    0.79590   0.48410   0.57970   1.000
    C342    C    0.79590   0.51590   0.42030   1.000
    C343    C    0.20410   0.48410   0.42030   1.000
    C344    C    0.57970   0.20410   0.51590   1.000
    C345    C    0.57970   0.79590   0.48410   1.000
    C346    C    0.42030   0.79590   0.51590   1.000
    C347    C    0.42030   0.20410   0.48410   1.000
    C348    C    0.51590   0.57970   0.20410   1.000
    C349    C    0.48410   0.57970   0.79590   1.000
    C350    C    0.51590   0.42030   0.79590   1.000
    C351    C    0.48410   0.42030   0.20410   1.000
    C352    C    0.01590   0.70410   0.07970   1.000
    C353    C    0.98410   0.29590   0.07970   1.000
    C354    C    0.01590   0.29590   0.92030   1.000
    C355    C    0.98410   0.70410   0.92030   1.000
    C356    C    0.70410   0.07970   0.01590   1.000
    C357    C    0.29590   0.07970   0.98410   1.000
    C358    C    0.29590   0.92030   0.01590   1.000
    C359    C    0.70410   0.92030   0.98410   1.000
    C360    C    0.07970   0.01590   0.70410   1.000
    C361    C    0.07970   0.98410   0.29590   1.000
    C362    C    0.92030   0.01590   0.29590   1.000
    C363    C    0.92030   0.98410   0.70410   1.000
    C364    C    0.79680   0.43050   0.61290   1.000
    C365    C    0.79680   0.56950   0.38710   1.000
    C366    C    0.20320   0.43050   0.38710   1.000
    C367    C    0.61290   0.20320   0.56950   1.000
    C368    C    0.61290   0.79680   0.43050   1.000
    C369    C    0.38710   0.79680   0.56950   1.000
    C370    C    0.38710   0.20320   0.43050   1.000
    C371    C    0.56950   0.61290   0.20320   1.000
    C372    C    0.43050   0.61290   0.79680   1.000
    C373    C    0.56950   0.38710   0.79680   1.000
    C374    C    0.43050   0.38710   0.20320   1.000
    C375    C    0.06950   0.70320   0.11290   1.000
    C376    C    0.93050   0.29680   0.11290   1.000
    C377    C    0.06950   0.29680   0.88710   1.000
    C378    C    0.93050   0.70320   0.88710   1.000
    C379    C    0.70320   0.11290   0.06950   1.000
    C380    C    0.29680   0.11290   0.93050   1.000
    C381    C    0.29680   0.88710   0.06950   1.000
    C382    C    0.70320   0.88710   0.93050   1.000
    C383    C    0.11290   0.06950   0.70320   1.000
    C384    C    0.11290   0.93050   0.29680   1.000
    C385    C    0.88710   0.06950   0.29680   1.000
    C386    C    0.88710   0.93050   0.70320   1.000
    H387    H    0.80136   0.39314   0.59323   1.000
    H388    H    0.80136   0.60686   0.40677   1.000
    H389    H    0.19864   0.39314   0.40677   1.000
    H390    H    0.59323   0.19864   0.60686   1.000
    H391    H    0.59323   0.80136   0.39314   1.000
    H392    H    0.40677   0.80136   0.60686   1.000
    H393    H    0.40677   0.19864   0.39314   1.000
    H394    H    0.60686   0.59323   0.19864   1.000
    H395    H    0.39314   0.59323   0.80136   1.000
    H396    H    0.60686   0.40677   0.80136   1.000
    H397    H    0.39314   0.40677   0.19864   1.000
    H398    H    0.10686   0.69864   0.09323   1.000
    H399    H    0.89314   0.30136   0.09323   1.000
    H400    H    0.10686   0.30136   0.90677   1.000
    H401    H    0.89314   0.69864   0.90677   1.000
    H402    H    0.69864   0.09323   0.10686   1.000
    H403    H    0.30136   0.09323   0.89314   1.000
    H404    H    0.30136   0.90677   0.10686   1.000
    H405    H    0.69864   0.90677   0.89314   1.000
    H406    H    0.09323   0.10686   0.69864   1.000
    H407    H    0.09323   0.89314   0.30136   1.000
    H408    H    0.90677   0.10686   0.30136   1.000
    H409    H    0.90677   0.89314   0.69864   1.000
    O410    O    0.75956   0.24044   0.75956   1.000
    O411    O    0.75956   0.75956   0.24044   1.000
    O412    O    0.24044   0.24044   0.24044   1.000
    O413    O    0.25956   0.74044   0.25956   1.000
    O414    O    0.74044   0.25956   0.25956   1.000
    O415    O    0.25956   0.25956   0.74044   1.000
    O416    O    0.74044   0.74044   0.74044   1.000
    O417    O    0.76180   0.37440   0.89020   0.463
    O418    O    0.76180   0.62560   0.10980   0.463
    O419    O    0.23820   0.37440   0.10980   0.463
    O420    O    0.89020   0.23820   0.62560   0.463
    O421    O    0.89020   0.76180   0.37440   0.463
    O422    O    0.10980   0.76180   0.62560   0.463
    O423    O    0.10980   0.23820   0.37440   0.463
    O424    O    0.62560   0.89020   0.23820   0.463
    O425    O    0.37440   0.89020   0.76180   0.463
    O426    O    0.62560   0.10980   0.76180   0.463
    O427    O    0.37440   0.10980   0.23820   0.463
    O428    O    0.12560   0.73820   0.39020   0.463
    O429    O    0.87440   0.26180   0.39020   0.463
    O430    O    0.12560   0.26180   0.60980   0.463
    O431    O    0.87440   0.73820   0.60980   0.463
    O432    O    0.73820   0.39020   0.12560   0.463
    O433    O    0.26180   0.39020   0.87440   0.463
    O434    O    0.26180   0.60980   0.12560   0.463
    O435    O    0.73820   0.60980   0.87440   0.463
    O436    O    0.39020   0.12560   0.73820   0.463
    O437    O    0.39020   0.87440   0.26180   0.463
    O438    O    0.60980   0.12560   0.26180   0.463
    O439    O    0.60980   0.87440   0.73820   0.463
loop_
    _geom_bond_atom_site_label_1
    _geom_bond_atom_site_label_2
    _geom_bond_distance
    _geom_bond_site_symmetry_2
    _ccdc_geom_bond_type
    H195   C172      0.93071      .   S
    H197   C174      0.93071      .   S
    C172   C264      1.38941      .   S
    C172   C218      1.38501  1_554   S
    C174   C266      1.38941      .   S
    C174   C220      1.38501  1_554   S
    N330   C353      1.44647      .   S
    N330   N331      1.21069  1_654   S
    N329   C352      1.44647      .   S
    N329   N332      1.21069  1_454   S
    C356   N333      1.44647      .   S
    C356   C379      1.37983      .   S
    C356   C287      1.37218  1_554   S
    C358   N335      1.44647      .   S
    C358   C381      1.37983      .   S
    C358   C289      1.37218  1_554   S
    N335   N334      1.21069  1_564   S
    N333   N336      1.21069  1_544   S
    C288   C219      1.37032      .   S
    C288   H311      0.93113      .   S
    C288   C357      1.37218  1_554   S
    C290   C221      1.37032      .   S
    C290   H313      0.93113      .   S
    C290   C359      1.37218  1_554   S
    C221   C152      1.50645      .   S
    C221   C175      1.38501  1_554   S
    C219   C150      1.50645      .   S
    C219   C173      1.38501  1_554   S
    C264   C379      1.39472      .   S
    C264   C241      1.47347      .   S
    C266   C381      1.39472      .   S
    C266   C243      1.47347      .   S
    C379   H402      0.92930      .   S
    C381   H404      0.92930      .   S
    C352   C283      1.37218  1_455   S
    C352   C375      1.37983      .   S
    C353   C284      1.37218  1_655   S
    C353   C376      1.37983      .   S
    H306   C283      0.93113      .   S
    H307   C284      0.93113      .   S
    H399   C376      0.92930      .   S
    H398   C375      0.92930      .   S
    C150   O104      1.26587      .   S
    C150   O58       1.26396      .   S
    C152   O106      1.26587      .   S
    C152   O60       1.26396      .   S
    O104   Fe21      1.99291      .   S
    O106   Fe20      1.99291      .   S
    C283   C214      1.37032      .   S
    C284   C215      1.37032      .   S
    O419   Fe21      2.23284      .   S
    O418   Fe20      2.23284      .   S
    C375   C260      1.39472      .   S
    C376   C261      1.39472      .   S
    C243   O82       1.24338      .   S
    C243   O128      1.26253      .   S
    C241   O80       1.24338      .   S
    C241   O126      1.26253      .   S
    O82    Fe36      1.99033      .   S
    O80    Fe34      1.99033      .   S
    O434   Fe36      2.23284      .   S
    O432   Fe34      2.23284      .   S
    O60    Fe26      1.98363      .   S
    O58    Fe29      1.98363      .   S
    O54    Fe21      1.98363      .   S
    O54    C146      1.26396      .   S
    O53    Fe20      1.98363      .   S
    O53    C145      1.26396      .   S
    C215   C146      1.50645      .   S
    C215   C169      1.38501  1_455   S
    C214   C145      1.50645      .   S
    C214   C168      1.38501  1_655   S
    O126   Fe40      2.00349      .   S
    O128   Fe39      2.00349      .   S
    C261   C169      1.38941      .   S
    C261   C238      1.47347      .   S
    C260   C168      1.38941      .   S
    C260   C237      1.47347      .   S
    O123   Fe34      2.00349      .   S
    O123   C238      1.26253      .   S
    O122   Fe36      2.00349      .   S
    O122   C237      1.26253      .   S
    Fe21   O121      2.00349      .   S
    Fe21   O67       1.99033      .   S
    Fe21   O412      1.86244      .   S
    Fe20   O118      2.00349      .   S
    Fe20   O66       1.99033      .   S
    O121   C236      1.26253      .   S
    O118   C233      1.26253      .   S
    Fe34   O52       1.98363      .   S
    Fe34   O89       1.99291      .   S
    Fe34   O414      1.86244      .   S
    Fe36   O49       1.98363      .   S
    Fe36   O90       1.99291      .   S
    Fe36   O413      1.86244      .   S
    H394   C371      0.92930      .   S
    H397   C374      0.92930      .   S
    C146   O100      1.26587      .   S
    C145   O99       1.26587      .   S
    N325   N328      1.21069      .   S
    N325   C348      1.44647      .   S
    N328   C351      1.44647      .   S
    C374   C351      1.37983      .   S
    C374   C259      1.39472      .   S
    C371   C348      1.37983      .   S
    C371   C256      1.39472      .   S
    O52    C144      1.26396      .   S
    O49    C141      1.26396      .   S
    C348   C279      1.37218      .   S
    C351   C282      1.37218      .   S
    C168   H191      0.93071      .   S
    C169   H192      0.93071      .   S
    H305   C282      0.93113      .   S
    H302   C279      0.93113      .   S
    C236   C259      1.47347      .   S
    C236   O75       1.24338      .   S
    C233   C256      1.47347      .   S
    C233   O72       1.24338      .   S
    C282   C213      1.37032      .   S
    C279   C210      1.37032      .   S
    C259   C167      1.38941      .   S
    C256   C164      1.38941      .   S
    C238   O77       1.24338      .   S
    C237   O76       1.24338      .   S
    C210   C164      1.38501      .   S
    C210   C141      1.50645      .   S
    C213   C167      1.38501      .   S
    C213   C144      1.50645      .   S
    C167   H190      0.93071      .   S
    C164   H187      0.93071      .   S
    C141   O95       1.26587      .   S
    C144   O98       1.26587      .   S
    O75    Fe29      1.99033      .   S
    O72    Fe26      1.99033      .   S
    O66    C227      1.24338      .   S
    O67    C228      1.24338      .   S
    O427   Fe29      2.23284      .   S
    O424   Fe26      2.23284      .   S
    Fe26   O411      1.86244      .   S
    Fe26   O109      1.99291      .   S
    Fe26   O115      2.00349      .   S
    Fe29   O108      1.99291      .   S
    Fe29   O117      2.00349      .   S
    O412   Fe25      1.86244      .   S
    O411   Fe23      1.86244      .   S
    O98    Fe40      1.99291      .   S
    O95    Fe39      1.99291      .   S
    O89    C135      1.26587      .   S
    O90    C136      1.26587      .   S
    O99    Fe23      1.99291      .   S
    O100   Fe25      1.99291      .   S
    H182   C159      0.93071      .   S
    H181   C158      0.93071      .   S
    O109   C155      1.26587      .   S
    O108   C154      1.26587      .   S
    O414   Fe40      1.86244      .   S
    O413   Fe30      1.86244      .   S
    Fe40   O438      2.23284      .   S
    Fe40   O86       1.99033      .   S
    Fe40   O45       1.98363      .   S
    Fe39   O437      2.23284      .   S
    Fe39   O85       1.99033      .   S
    Fe39   O47       1.98363      .   S
    O76    Fe30      1.99033      .   S
    O77    Fe31      1.99033      .   S
    O85    C246      1.24338      .   S
    O86    C247      1.24338      .   S
    H201   C178      0.93071      .   S
    H200   C177      0.93071      .   S
    C154   C223      1.50645      .   S
    C154   O62       1.26396      .   S
    C155   C224      1.50645      .   S
    C155   O63       1.26396      .   S
    C178   C224      1.38501  1_545   S
    C178   C270      1.38941      .   S
    C177   C223      1.38501  1_565   S
    C177   C269      1.38941      .   S
    C224   C293      1.37032      .   S
    C223   C292      1.37032      .   S
    C227   O112      1.26253      .   S
    C227   C250      1.47347      .   S
    C228   O113      1.26253      .   S
    C228   C251      1.47347      .   S
    C270   C247      1.47347      .   S
    C270   C385      1.39472      .   S
    C269   C246      1.47347      .   S
    C269   C384      1.39472      .   S
    C292   H315      0.93113      .   S
    C292   C361      1.37218  1_545   S
    C293   H316      0.93113      .   S
    C293   C362      1.37218  1_565   S
    C246   O131      1.26253      .   S
    C247   O132      1.26253      .   S
    C159   C251      1.38941      .   S
    C159   C205      1.38501      .   S
    C158   C250      1.38941      .   S
    C158   C204      1.38501      .   S
    O63    Fe23      1.98363      .   S
    O62    Fe25      1.98363      .   S
    C362   C385      1.37983      .   S
    C362   N339      1.44647      .   S
    C361   C384      1.37983      .   S
    C361   N338      1.44647      .   S
    C384   H407      0.92930      .   S
    C385   H408      0.92930      .   S
    N339   N338      1.21069  1_645   S
    C135   C204      1.50645      .   S
    C135   O43       1.26396      .   S
    C136   C205      1.50645      .   S
    C136   O44       1.26396      .   S
    Fe25   O113      2.00349      .   S
    Fe25   O423      2.23284      .   S
    Fe25   O71       1.99033      .   S
    Fe23   O112      2.00349      .   S
    Fe23   O421      2.23284      .   S
    Fe23   O69       1.99033      .   S
    O131   Fe30      2.00349      .   S
    O132   Fe31      2.00349      .   S
    Fe30   O44       1.98363      .   S
    Fe30   O428      2.23284      .   S
    Fe30   O93       1.99291      .   S
    Fe31   O43       1.98363      .   S
    Fe31   O429      2.23284      .   S
    Fe31   O91       1.99291      .   S
    C251   C366      1.39472      .   S
    C250   C365      1.39472      .   S
    O115   C230      1.26253      .   S
    O117   C232      1.26253      .   S
    C204   C273      1.37032      .   S
    C205   C274      1.37032      .   S
    O45    C137      1.26396      .   S
    O47    C139      1.26396      .   S
    O69    C230      1.24338      .   S
    O71    C232      1.24338      .   S
    C230   C253      1.47347      .   S
    C232   C255      1.47347      .   S
    C366   H389      0.92930      .   S
    C366   C343      1.37983      .   S
    C365   H388      0.92930      .   S
    C365   C342      1.37983      .   S
    C274   H297      0.93113      .   S
    C274   C343      1.37218      .   S
    C273   H296      0.93113      .   S
    C273   C342      1.37218      .   S
    O93    C139      1.26587      .   S
    O91    C137      1.26587      .   S
    H391   C368      0.92930      .   S
    H393   C370      0.92930      .   S
    C139   C208      1.50645      .   S
    C137   C206      1.50645      .   S
    C343   N320      1.44647      .   S
    C342   N319      1.44647      .   S
    H300   C277      0.93113      .   S
    H298   C275      0.93113      .   S
    C370   C255      1.39472      .   S
    C370   C347      1.37983      .   S
    C368   C253      1.39472      .   S
    C368   C345      1.37983      .   S
    C253   C161      1.38941      .   S
    C255   C163      1.38941      .   S
    C206   C275      1.37032      .   S
    C206   C160      1.38501      .   S
    C208   C277      1.37032      .   S
    C208   C162      1.38501      .   S
    C275   C344      1.37218      .   S
    C277   C346      1.37218      .   S
    N322   C345      1.44647      .   S
    N322   N323      1.21069      .   S
    N324   C347      1.44647      .   S
    N324   N321      1.21069      .   S
    C345   C276      1.37218      .   S
    C347   C278      1.37218      .   S
    N320   N13       1.21069      .   S
    N319   N318      1.21069      .   S
    C161   H184      0.93071      .   S
    C161   C207      1.38501      .   S
    C163   H186      0.93071      .   S
    C163   C209      1.38501      .   S
    H185   C162      0.93071      .   S
    H183   C160      0.93071      .   S
    C160   C252      1.38941      .   S
    C162   C254      1.38941      .   S
    N13    C14       1.44647      .   S
    N318   C341      1.44647      .   S
    C344   N321      1.44647      .   S
    C344   C367      1.37983      .   S
    C346   N323      1.44647      .   S
    C346   C369      1.37983      .   S
    C278   C209      1.37032      .   S
    C278   H301      0.93113      .   S
    C276   C207      1.37032      .   S
    C276   H299      0.93113      .   S
    C209   C140      1.50645      .   S
    C207   C138      1.50645      .   S
    C252   C367      1.39472      .   S
    C252   C229      1.47347      .   S
    C254   C369      1.39472      .   S
    C254   C231      1.47347      .   S
    C367   H390      0.92930      .   S
    C369   H392      0.92930      .   S
    C341   C272      1.37218      .   S
    C341   C364      1.37983      .   S
    C14    C11       1.37218      .   S
    C14    C15       1.37983      .   S
    H12    C11       0.93113      .   S
    H295   C272      0.93113      .   S
    H387   C364      0.92930      .   S
    H16    C15       0.92930      .   S
    C138   O92       1.26587      .   S
    C138   O46       1.26396      .   S
    C140   O94       1.26587      .   S
    C140   O48       1.26396      .   S
    O92    Fe33      1.99291      .   S
    O94    Fe32      1.99291      .   S
    C11    C8        1.37032      .   S
    C272   C203      1.37032      .   S
    O430   Fe32      2.23284      .   S
    O431   Fe33      2.23284      .   S
    C364   C249      1.39472      .   S
    C15    C10       1.39472      .   S
    C229   O68       1.24338      .   S
    C229   O114      1.26253      .   S
    C231   O70       1.24338      .   S
    C231   O116      1.26253      .   S
    O68    Fe22      1.99033      .   S
    O70    Fe24      1.99033      .   S
    O420   Fe22      2.23284      .   S
    O422   Fe24      2.23284      .   S
    O46    Fe41      1.98363      .   S
    O48    Fe38      1.98363      .   S
    O42    Fe33      1.98363      .   S
    O42    C134      1.26396      .   S
    O1     Fe32      1.98363      .   S
    O1     C5        1.26396      .   S
    C203   C134      1.50645      .   S
    C203   C157      1.38501      .   S
    C8     C5        1.50645      .   S
    C8     C6        1.38501      .   S
    O114   Fe28      2.00349      .   S
    O116   Fe27      2.00349      .   S
    C249   C157      1.38941      .   S
    C249   C226      1.47347      .   S
    C10    C6        1.38941      .   S
    C10    C9        1.47347      .   S
    O111   Fe22      2.00349      .   S
    O111   C226      1.26253      .   S
    O4     Fe24      2.00349      .   S
    O4     C9        1.26253      .   S
    Fe32   O130      2.00349      .   S
    Fe32   O78       1.99033      .   S
    Fe32   O415      1.86244      .   S
    Fe33   O133      2.00349      .   S
    Fe33   O79       1.99033      .   S
    O130   C245      1.26253      .   S
    O133   C248      1.26253      .   S
    Fe24   O61       1.98363      .   S
    Fe24   O102      1.99291      .   S
    Fe22   O64       1.98363      .   S
    Fe22   O101      1.99291      .   S
    H409   C386      0.92930      .   S
    H406   C383      0.92930      .   S
    C134   O88       1.26587      .   S
    C5     O3        1.26587      .   S
    N337   N340      1.21069  1_445   S
    N337   C360      1.44647      .   S
    N340   C363      1.44647      .   S
    C386   C363      1.37983      .   S
    C386   C271      1.39472      .   S
    C383   C360      1.37983      .   S
    C383   C268      1.39472      .   S
    C360   C291      1.37218  1_545   S
    O61    C153      1.26396      .   S
    O64    C156      1.26396      .   S
    C363   C294      1.37218  1_565   S
    C157   H180      0.93071      .   S
    C6     H7        0.93071      .   S
    H317   C294      0.93113      .   S
    H314   C291      0.93113      .   S
    C248   C271      1.47347      .   S
    C248   O87       1.24338      .   S
    C245   C268      1.47347      .   S
    C245   O84       1.24338      .   S
    C291   C222      1.37032      .   S
    C294   C225      1.37032      .   S
    C271   C179      1.38941      .   S
    C268   C176      1.38941      .   S
    C226   O65       1.24338      .   S
    C9     O2        1.24338      .   S
    C222   C176      1.38501  1_565   S
    C222   C153      1.50645      .   S
    C225   C179      1.38501  1_545   S
    C225   C156      1.50645      .   S
    C176   H199      0.93071      .   S
    C179   H202      0.93071      .   S
    C156   O110      1.26587      .   S
    C153   O107      1.26587      .   S
    O87    Fe41      1.99033      .   S
    O84    Fe38      1.99033      .   S
    O78    C239      1.24338      .   S
    O79    C240      1.24338      .   S
    O436   Fe38      2.23284      .   S
    O439   Fe41      2.23284      .   S
    Fe41   O416      1.86244      .   S
    Fe41   O96       1.99291      .   S
    Fe41   O129      2.00349      .   S
    Fe38   O97       1.99291      .   S
    Fe38   O127      2.00349      .   S
    O416   Fe37      1.86244      .   S
    O415   Fe35      1.86244      .   S
    O107   Fe27      1.99291      .   S
    O110   Fe28      1.99291      .   S
    O102   C148      1.26587      .   S
    O101   C147      1.26587      .   S
    O3     Fe35      1.99291      .   S
    O88    Fe37      1.99291      .   S
    H193   C170      0.93071      .   S
    H194   C171      0.93071      .   S
    O96    C142      1.26587      .   S
    O97    C143      1.26587      .   S
    O410   Fe28      1.86244      .   S
    O410   Fe19      1.86244      .   S
    O17    Fe27      1.86244      .   S
    O17    Fe0       1.86244      .   S
    Fe27   O425      2.23284      .   S
    Fe27   O73       1.99033      .   S
    Fe27   O59       1.98363      .   S
    Fe28   O426      2.23284      .   S
    Fe28   O74       1.99033      .   S
    Fe28   O57       1.98363      .   S
    O2     Fe0       1.99033      .   S
    O65    Fe19      1.99033      .   S
    O73    C234      1.24338      .   S
    O74    C235      1.24338      .   S
    H189   C166      0.93071      .   S
    H188   C165      0.93071      .   S
    C143   C212      1.50645      .   S
    C143   O51       1.26396      .   S
    C142   C211      1.50645      .   S
    C142   O50       1.26396      .   S
    C166   C212      1.38501      .   S
    C166   C258      1.38941      .   S
    C165   C211      1.38501      .   S
    C165   C257      1.38941      .   S
    C211   C280      1.37032      .   S
    C212   C281      1.37032      .   S
    C239   O124      1.26253      .   S
    C239   C262      1.47347      .   S
    C240   O125      1.26253      .   S
    C240   C263      1.47347      .   S
    C257   C234      1.47347      .   S
    C257   C372      1.39472      .   S
    C258   C235      1.47347      .   S
    C258   C373      1.39472      .   S
    C280   H303      0.93113      .   S
    C280   C349      1.37218      .   S
    C281   H304      0.93113      .   S
    C281   C350      1.37218      .   S
    C235   O120      1.26253      .   S
    C234   O119      1.26253      .   S
    C170   C262      1.38941      .   S
    C170   C216      1.38501  1_455   S
    C171   C263      1.38941      .   S
    C171   C217      1.38501  1_655   S
    C350   C373      1.37983      .   S
    C350   N327      1.44647      .   S
    C349   C372      1.37983      .   S
    C349   N326      1.44647      .   S
    O50    Fe37      1.98363      .   S
    O51    Fe35      1.98363      .   S
    C372   H395      0.92930      .   S
    C373   H396      0.92930      .   S
    N326   N327      1.21069      .   S
    C148   C217      1.50645      .   S
    C148   O56       1.26396      .   S
    C147   C216      1.50645      .   S
    C147   O55       1.26396      .   S
    Fe35   O124      2.00349      .   S
    Fe35   O433      2.23284      .   S
    Fe35   O81       1.99033      .   S
    Fe37   O125      2.00349      .   S
    Fe37   O435      2.23284      .   S
    Fe37   O83       1.99033      .   S
    O120   Fe19      2.00349      .   S
    O119   Fe0       2.00349      .   S
    Fe19   O55       1.98363      .   S
    Fe19   O417      2.23284      .   S
    Fe19   O103      1.99291      .   S
    Fe0    O56       1.98363      .   S
    Fe0    O18       2.23284      .   S
    Fe0    O105      1.99291      .   S
    C263   C378      1.39472      .   S
    C262   C377      1.39472      .   S
    O129   C244      1.26253      .   S
    O127   C242      1.26253      .   S
    C216   C285      1.37032      .   S
    C217   C286      1.37032      .   S
    O59    C151      1.26396      .   S
    O57    C149      1.26396      .   S
    O81    C242      1.24338      .   S
    O83    C244      1.24338      .   S
    C242   C265      1.47347      .   S
    C244   C267      1.47347      .   S
    C378   H401      0.92930      .   S
    C378   C355      1.37983      .   S
    C377   H400      0.92930      .   S
    C377   C354      1.37983      .   S
    C285   H308      0.93113      .   S
    C285   C354      1.37218  1_655   S
    C286   H309      0.93113      .   S
    C286   C355      1.37218  1_455   S
    O103   C149      1.26587      .   S
    O105   C151      1.26587      .   S
    H403   C380      0.92930      .   S
    H405   C382      0.92930      .   S
    C149   C218      1.50645      .   S
    C151   C220      1.50645      .   S
    C354   N331      1.44647      .   S
    C355   N332      1.44647      .   S
    H310   C287      0.93113      .   S
    H312   C289      0.93113      .   S
    C380   C265      1.39472      .   S
    C380   C357      1.37983      .   S
    C382   C267      1.39472      .   S
    C382   C359      1.37983      .   S
    C265   C173      1.38941      .   S
    C267   C175      1.38941      .   S
    C218   C287      1.37032      .   S
    C220   C289      1.37032      .   S
    N336   C359      1.44647      .   S
    N334   C357      1.44647      .   S
    C173   H196      0.93071      .   S
    C175   H198      0.93071      .   S
    O17    Fe24      1.86244      .   S
    O410   Fe22      1.86244      .   S
    O411   Fe20      1.86244      .   S
    O412   Fe29      1.86244      .   S
    O413   Fe39      1.86244      .   S
    O414   Fe31      1.86244      .   S
    O415   Fe38      1.86244      .   S
    O416   Fe33      1.86244      .   S
