# CIF file generated by openbabel 2.4.90, see http://openbabel.sf.net
data_I
_chemical_name_common ''
_cell_length_a 24.057
_cell_length_b 24.057
_cell_length_c 26.996
_cell_angle_alpha 90
_cell_angle_beta 90
_cell_angle_gamma 120
_space_group_name_H-M_alt 'P 1'
_space_group_name_Hall 'P 1'
loop_
    _symmetry_equiv_pos_as_xyz
    x,y,z
loop_
    _atom_site_label
    _atom_site_type_symbol
    _atom_site_fract_x
    _atom_site_fract_y
    _atom_site_fract_z
    _atom_site_occupancy
    Zn0     Zn   0.53463   0.45653   0.02073   1.000
    Zn1     Zn   0.54347   0.07810   0.68739   1.000
    Zn2     Zn   0.92190   0.46537   0.35406   1.000
    Zn3     Zn   0.46537   0.54347   0.52073   1.000
    Zn4     Zn   0.45653   0.92190   0.18739   1.000
    Zn5     Zn   0.07810   0.53463   0.85406   1.000
    Zn6     Zn   0.45653   0.53463   0.64594   1.000
    Zn7     Zn   0.07810   0.54347   0.97927   1.000
    Zn8     Zn   0.46537   0.92190   0.31261   1.000
    Zn9     Zn   0.54347   0.46537   0.14594   1.000
    Zn10    Zn   0.92190   0.45653   0.47927   1.000
    Zn11    Zn   0.53463   0.07810   0.81261   1.000
