# CIF file generated by openbabel 2.4.90, see http://openbabel.sf.net
data_I
_chemical_name_common ''
_cell_length_a 24.057
_cell_length_b 24.057
_cell_length_c 26.996
_cell_angle_alpha 90
_cell_angle_beta 90
_cell_angle_gamma 120
_space_group_name_H-M_alt 'P 1'
_space_group_name_Hall 'P 1'
loop_
    _symmetry_equiv_pos_as_xyz
    x,y,z
loop_
    _atom_site_label
    _atom_site_type_symbol
    _atom_site_fract_x
    _atom_site_fract_y
    _atom_site_fract_z
    _atom_site_occupancy
    N0      N    0.41340   0.20670   0.91666   1.000
    N1      N    0.79330   0.58660   0.25000   1.000
    N2      N    0.48699   0.00000   1.00000   1.000
    N3      N    0.00000   0.48699   0.66667   1.000
    N4      N    0.48699   0.48699   0.83333   1.000
    N5      N    0.00000   0.51301   0.16667   1.000
    N6      N    0.51301   0.00000   0.50000   1.000
    N7      N    0.51301   0.51301   0.33333   1.000
    N8      N    0.20670   0.79330   0.08333   1.000
    N9      N    0.79330   0.20670   0.58333   1.000
    N10     N    0.20670   0.41340   0.75000   1.000
    N11     N    0.58660   0.79330   0.41666   1.000
    Zr12    Zr   0.53463   0.45653   0.02073   1.000
    O13     O    0.51987   0.46196   0.96514   1.000
    Zr14    Zr   0.54347   0.07810   0.68739   1.000
    O15     O    0.53804   0.05791   0.63180   1.000
    Zr16    Zr   0.92190   0.46537   0.35406   1.000
    O17     O    0.94209   0.48013   0.29847   1.000
    Zr18    Zr   0.46537   0.54347   0.52073   1.000
    O19     O    0.48013   0.53804   0.46514   1.000
    Zr20    Zr   0.45653   0.92190   0.18739   1.000
    O21     O    0.46196   0.94209   0.13180   1.000
    Zr22    Zr   0.07810   0.53463   0.85406   1.000
    O23     O    0.05791   0.51987   0.79847   1.000
    Zr24    Zr   0.45653   0.53463   0.64594   1.000
    O25     O    0.46196   0.51987   0.70153   1.000
    Zr26    Zr   0.07810   0.54347   0.97927   1.000
    O27     O    0.05791   0.53804   0.03486   1.000
    Zr28    Zr   0.46537   0.92190   0.31261   1.000
    O29     O    0.48013   0.94209   0.36820   1.000
    Zr30    Zr   0.54347   0.46537   0.14594   1.000
    O31     O    0.53804   0.48013   0.20153   1.000
    Zr32    Zr   0.92190   0.45653   0.47927   1.000
    O33     O    0.94209   0.46196   0.53486   1.000
    Zr34    Zr   0.53463   0.07810   0.81261   1.000
    O35     O    0.51987   0.05791   0.86820   1.000
    O36     O    0.45848   0.54457   0.12770   1.000
    O37     O    0.53764   0.45132   0.62729   1.000
    O38     O    0.54868   0.46236   0.53938   1.000
    O39     O    0.45543   0.16392   0.79436   1.000
    O40     O    0.45132   0.53764   0.03938   1.000
    O41     O    0.54457   0.83608   0.29436   1.000
    O42     O    0.16392   0.45848   0.96103   1.000
    O43     O    0.84052   0.54894   0.37251   1.000
    O44     O    0.84052   0.54157   0.46082   1.000
    O45     O    0.54157   0.84052   0.20584   1.000
    O46     O    0.16392   0.45543   0.87230   1.000
    O47     O    0.45848   0.16392   0.70564   1.000
loop_
    _geom_bond_atom_site_label_1
    _geom_bond_atom_site_label_2
    _geom_bond_distance
    _geom_bond_site_symmetry_2
    _ccdc_geom_bond_type
    Zr12   O13       1.56267  1_554   S
    N4     O13       3.75830      .   S
    Zr14   O15       1.56261      .   S
    N6     O15       3.75828      .   S
    Zr16   O17       1.56266      .   S
    N5     O17       3.75830  1_455   S
    Zr18   O19       1.56267      .   S
    N7     O19       3.75830      .   S
    Zr20   O21       1.56261      .   S
    N2     O21       3.75828  1_546   S
    Zr22   O23       1.56266      .   S
    N3     O23       3.75830      .   S
    Zr24   O25       1.56266      .   S
    N4     O25       3.75830      .   S
    Zr26   O27       1.56267  1_556   S
    N5     O27       3.75830      .   S
    Zr28   O29       1.56258      .   S
    N6     O29       3.75819  1_545   S
    Zr30   O31       1.56266      .   S
    N7     O31       3.75830      .   S
    Zr32   O33       1.56267      .   S
    N3     O33       3.75830  1_455   S
    Zr34   O35       1.56258      .   S
    N2     O35       3.75819      .   S
    N8     O36      10.49639      .   S
    Zr30   O36       3.45658      .   S
    N9     O37      10.49111      .   S
    Zr24   O37       3.46235      .   S
    Zr18   O38       3.46234      .   S
    N9     O38      10.49110      .   S
    N10    O39      10.44869      .   S
    Zr34   O39       3.47391      .   S
    Zr12   O40       3.46234      .   S
    N8     O40      10.49110      .   S
    N1     O41      10.44869      .   S
    Zr28   O41       3.47391      .   S
    Zr26   O42       3.59245      .   S
    N0     O42      10.51185      .   S
    N11    O43      10.44978      .   S
    Zr16   O43       3.47276      .   S
    N11    O44      10.60184      .   S
    Zr32   O44       3.50317      .   S
    Zr20   O45       3.50318      .   S
    N1     O45      10.60183      .   S
    Zr22   O46       3.47389      .   S
    N0     O46      10.44867      .   S
    Zr14   O47       3.59245      .   S
    N10    O47      10.51184      .   S
