# CIF file generated by openbabel 2.4.90, see http://openbabel.sf.net
data_I
_chemical_name_common ''
_cell_length_a 24.057
_cell_length_b 24.057
_cell_length_c 26.996
_cell_angle_alpha 90
_cell_angle_beta 90
_cell_angle_gamma 120
_space_group_name_H-M_alt 'P 1'
_space_group_name_Hall 'P 1'
loop_
    _symmetry_equiv_pos_as_xyz
    x,y,z
loop_
    _atom_site_label
    _atom_site_type_symbol
    _atom_site_fract_x
    _atom_site_fract_y
    _atom_site_fract_z
    _atom_site_occupancy
    Zr0     Zr   0.53463   0.45653   0.02073   1.000
    Zr1     Zr   0.54347   0.07810   0.68739   1.000
    Zr2     Zr   0.92190   0.46537   0.35406   1.000
    Zr3     Zr   0.46537   0.54347   0.52073   1.000
    Zr4     Zr   0.45653   0.92190   0.18739   1.000
    Zr5     Zr   0.07810   0.53463   0.85406   1.000
    Zr6     Zr   0.45653   0.53463   0.64594   1.000
    Zr7     Zr   0.07810   0.54347   0.97927   1.000
    Zr8     Zr   0.46537   0.92190   0.31261   1.000
    Zr9     Zr   0.54347   0.46537   0.14594   1.000
    Zr10    Zr   0.92190   0.45653   0.47927   1.000
    Zr11    Zr   0.53463   0.07810   0.81261   1.000
    N12     N    0.41340   0.20670   0.91666   1.000
    O13     O    0.25906   0.36585   0.94402   1.000
    O14     O    0.25721   0.36034   0.89259   1.000
    O15     O    0.25721   0.39686   0.94074   1.000
    O16     O    0.25906   0.39321   0.88931   1.000
    O17     O    0.22360   0.35818   0.89097   1.000
    O18     O    0.22360   0.36542   0.94235   1.000
    N19     N    0.79330   0.58660   0.25000   1.000
    O20     O    0.60679   0.74094   0.27735   1.000
    O21     O    0.60314   0.74279   0.22593   1.000
    O22     O    0.63966   0.74279   0.27407   1.000
    O23     O    0.63415   0.74094   0.22265   1.000
    O24     O    0.63458   0.77640   0.22431   1.000
    O25     O    0.64182   0.77640   0.27569   1.000
    N26     N    0.48699   0.00000   1.00000   1.000
    O27     O    0.46739   0.96227   0.07621   1.000
    O28     O    0.50511   0.03773   0.92379   1.000
    N29     N    0.00000   0.48699   0.66667   1.000
    O30     O    0.03772   0.50511   0.74287   1.000
    O31     O    0.96227   0.46739   0.59046   1.000
    N32     N    0.48699   0.48699   0.83333   1.000
    O33     O    0.50511   0.46739   0.90954   1.000
    O34     O    0.46739   0.50511   0.75713   1.000
    N35     N    0.00000   0.51301   0.16667   1.000
    O36     O    0.96228   0.49489   0.24287   1.000
    O37     O    0.03773   0.53261   0.09046   1.000
    N38     N    0.51301   0.00000   0.50000   1.000
    O39     O    0.53261   0.03772   0.57621   1.000
    O40     O    0.49489   0.96227   0.42379   1.000
    N41     N    0.51301   0.51301   0.33333   1.000
    O42     O    0.49489   0.53261   0.40954   1.000
    O43     O    0.53261   0.49489   0.25713   1.000
    N44     N    0.20670   0.79330   0.08333   1.000
    O45     O    0.36585   0.60679   0.11069   1.000
    O46     O    0.36034   0.60314   0.05926   1.000
    O47     O    0.39321   0.63415   0.05598   1.000
    O48     O    0.35818   0.63458   0.05764   1.000
    O49     O    0.39686   0.63966   0.10741   1.000
    O50     O    0.36542   0.64182   0.10902   1.000
    N51     N    0.79330   0.20670   0.58333   1.000
    O52     O    0.63415   0.39321   0.61069   1.000
    O53     O    0.63966   0.39686   0.55926   1.000
    O54     O    0.60314   0.36034   0.60741   1.000
    O55     O    0.60679   0.36585   0.55598   1.000
    O56     O    0.64182   0.36542   0.55764   1.000
    O57     O    0.63458   0.35818   0.60902   1.000
    N58     N    0.20670   0.41340   0.75000   1.000
    O59     O    0.39321   0.25906   0.77735   1.000
    O60     O    0.36542   0.22360   0.72431   1.000
    O61     O    0.39686   0.25721   0.72593   1.000
    O62     O    0.36034   0.25721   0.77407   1.000
    O63     O    0.36585   0.25906   0.72265   1.000
    O64     O    0.35818   0.22360   0.77569   1.000
    N65     N    0.58660   0.79330   0.41666   1.000
    O66     O    0.74094   0.63415   0.44402   1.000
    O67     O    0.77640   0.64182   0.39097   1.000
    O68     O    0.74279   0.63966   0.39259   1.000
    O69     O    0.74279   0.60314   0.44074   1.000
    O70     O    0.74094   0.60679   0.38931   1.000
    O71     O    0.77640   0.63458   0.44235   1.000
loop_
    _geom_bond_atom_site_label_1
    _geom_bond_atom_site_label_2
    _geom_bond_distance
    _geom_bond_site_symmetry_2
    _ccdc_geom_bond_type
    N12    O13       6.57310      .   S
    Zr7    O13       7.53112      .   S
    N12    O14       6.48778      .   S
    Zr5    O14       7.43595      .   S
    N12    O15       7.25672      .   S
    Zr7    O15       6.87627      .   S
    N12    O16       7.14996      .   S
    Zr5    O16       6.80023      .   S
    N12    O17       7.15885      .   S
    Zr5    O17       6.79127      .   S
    N12    O18       7.30357      .   S
    Zr7    O18       6.82544      .   S
    N19    O20       7.14997      .   S
    Zr8    O20       6.80027      .   S
    N19    O21       7.25671      .   S
    Zr4    O21       6.87628      .   S
    N19    O22       6.48779      .   S
    Zr8    O22       7.43599      .   S
    N19    O23       6.57309      .   S
    Zr4    O23       7.53113      .   S
    N19    O24       7.30356      .   S
    Zr4    O24       6.82545      .   S
    N19    O25       7.15886      .   S
    Zr8    O25       6.79130      .   S
    N26    O27       2.20242  1_546   S
    Zr4    O27       3.12523      .   S
    N26    O28       2.20236      .   S
    Zr11   O28       3.12517      .   S
    N29    O30       2.20239      .   S
    Zr5    O30       3.12533      .   S
    N29    O31       2.20239  1_455   S
    Zr10   O31       3.12533      .   S
    N32    O33       2.20239      .   S
    Zr0    O33       3.12533  1_554   S
    N32    O34       2.20239      .   S
    Zr6    O34       3.12533      .   S
    N35    O36       2.20239  1_455   S
    Zr2    O36       3.12533      .   S
    N35    O37       2.20239      .   S
    Zr7    O37       3.12533  1_556   S
    N38    O39       2.20242      .   S
    Zr1    O39       3.12523      .   S
    N38    O40       2.20236  1_545   S
    Zr8    O40       3.12517      .   S
    N41    O42       2.20239      .   S
    Zr3    O42       3.12533      .   S
    N41    O43       2.20239      .   S
    Zr9    O43       3.12533      .   S
    N44    O45       7.24678      .   S
    Zr9    O45       6.72873      .   S
    N44    O46       7.20571      .   S
    Zr0    O46       6.77411      .   S
    N44    O47       7.24677      .   S
    Zr0    O47       6.72871      .   S
    N44    O48       6.50045      .   S
    Zr0    O48       7.45256      .   S
    N44    O49       7.20572      .   S
    Zr9    O49       6.77412      .   S
    N44    O50       6.50046      .   S
    Zr9    O50       7.45257      .   S
    N51    O52       7.24678      .   S
    Zr6    O52       6.72873      .   S
    N51    O53       7.20571      .   S
    Zr3    O53       6.77411      .   S
    N51    O54       7.20572      .   S
    Zr6    O54       6.77412      .   S
    N51    O55       7.24677      .   S
    Zr3    O55       6.72871      .   S
    N51    O56       6.50045      .   S
    Zr3    O56       7.45256      .   S
    N51    O57       6.50046      .   S
    Zr6    O57       7.45257      .   S
    N58    O59       7.14997      .   S
    Zr11   O59       6.80027      .   S
    N58    O60       7.30356      .   S
    Zr1    O60       6.82545      .   S
    N58    O61       7.25671      .   S
    Zr1    O61       6.87628      .   S
    N58    O62       6.48779      .   S
    Zr11   O62       7.43599      .   S
    N58    O63       6.57309      .   S
    Zr1    O63       7.53113      .   S
    N58    O64       7.15886      .   S
    Zr11   O64       6.79130      .   S
    N65    O66       6.57310      .   S
    Zr10   O66       7.53112      .   S
    N65    O67       7.15885      .   S
    Zr2    O67       6.79127      .   S
    N65    O68       6.48778      .   S
    Zr2    O68       7.43595      .   S
    N65    O69       7.25672      .   S
    Zr10   O69       6.87627      .   S
    N65    O70       7.14996      .   S
    Zr2    O70       6.80023      .   S
    N65    O71       7.30357      .   S
    Zr10   O71       6.82544      .   S
