# CIF file generated by openbabel 2.4.90, see http://openbabel.sf.net
data_I
_chemical_name_common ''
_cell_length_a 24.057
_cell_length_b 24.057
_cell_length_c 26.996
_cell_angle_alpha 90
_cell_angle_beta 90
_cell_angle_gamma 120
_space_group_name_H-M_alt 'P 1'
_space_group_name_Hall 'P 1'
loop_
    _symmetry_equiv_pos_as_xyz
    x,y,z
loop_
    _atom_site_label
    _atom_site_type_symbol
    _atom_site_fract_x
    _atom_site_fract_y
    _atom_site_fract_z
    _atom_site_occupancy
    N0      N    0.41340   0.20670   0.91666   1.000
    N1      N    0.79330   0.58660   0.25000   1.000
    N2      N    0.48699   0.00000   1.00000   1.000
    N3      N    0.00000   0.48699   0.66667   1.000
    N4      N    0.48699   0.48699   0.83333   1.000
    N5      N    0.00000   0.51301   0.16667   1.000
    N6      N    0.51301   0.00000   0.50000   1.000
    N7      N    0.51301   0.51301   0.33333   1.000
    N8      N    0.20670   0.79330   0.08333   1.000
    N9      N    0.79330   0.20670   0.58333   1.000
    N10     N    0.20670   0.41340   0.75000   1.000
    N11     N    0.58660   0.79330   0.41666   1.000
    Zr12    Zr   0.53463   0.45653   0.02073   1.000
    O13     O    0.51987   0.46196   0.96514   1.000
    O14     O    0.44749   0.52983   0.04000   1.000
    O15     O    0.46392   0.54534   0.03836   1.000
    O16     O    0.44641   0.54556   0.03919   1.000
    Zr17    Zr   0.54347   0.07810   0.68739   1.000
    O18     O    0.45444   0.15085   0.70585   1.000
    O19     O    0.47017   0.16765   0.70666   1.000
    O20     O    0.45466   0.16858   0.70502   1.000
    O21     O    0.53804   0.05791   0.63180   1.000
    Zr22    Zr   0.92190   0.46537   0.35406   1.000
    O23     O    0.94209   0.48013   0.29847   1.000
    O24     O    0.83142   0.53608   0.37169   1.000
    O25     O    0.83235   0.55251   0.37333   1.000
    O26     O    0.84915   0.55359   0.37252   1.000
    Zr27    Zr   0.46537   0.54347   0.52073   1.000
    O28     O    0.48013   0.53804   0.46514   1.000
    O29     O    0.55251   0.47017   0.54000   1.000
    O30     O    0.53608   0.45466   0.53836   1.000
    O31     O    0.55359   0.45444   0.53919   1.000
    Zr32    Zr   0.45653   0.92190   0.18739   1.000
    O33     O    0.46196   0.94209   0.13180   1.000
    O34     O    0.54534   0.83142   0.20502   1.000
    O35     O    0.54556   0.84915   0.20585   1.000
    O36     O    0.52983   0.83235   0.20666   1.000
    Zr37    Zr   0.07810   0.53463   0.85406   1.000
    O38     O    0.16858   0.46392   0.87169   1.000
    O39     O    0.16765   0.44749   0.87333   1.000
    O40     O    0.15085   0.44641   0.87252   1.000
    O41     O    0.05791   0.51987   0.79847   1.000
    Zr42    Zr   0.45653   0.53463   0.64594   1.000
    O43     O    0.46196   0.51987   0.70153   1.000
    O44     O    0.54534   0.46392   0.62831   1.000
    O45     O    0.52983   0.44749   0.62667   1.000
    O46     O    0.54556   0.44641   0.62748   1.000
    Zr47    Zr   0.07810   0.54347   0.97927   1.000
    O48     O    0.16765   0.47017   0.96000   1.000
    O49     O    0.16858   0.45466   0.96164   1.000
    O50     O    0.05791   0.53804   0.03486   1.000
    O51     O    0.15085   0.45444   0.96081   1.000
    Zr52    Zr   0.46537   0.92190   0.31261   1.000
    O53     O    0.48013   0.94209   0.36820   1.000
    O54     O    0.55359   0.84915   0.29415   1.000
    O55     O    0.55251   0.83235   0.29334   1.000
    O56     O    0.53608   0.83142   0.29498   1.000
    Zr57    Zr   0.54347   0.46537   0.14594   1.000
    O58     O    0.53804   0.48013   0.20153   1.000
    O59     O    0.45466   0.53608   0.12831   1.000
    O60     O    0.47017   0.55251   0.12667   1.000
    O61     O    0.45444   0.55359   0.12748   1.000
    Zr62    Zr   0.92190   0.45653   0.47927   1.000
    O63     O    0.94209   0.46196   0.53486   1.000
    O64     O    0.84915   0.54556   0.46081   1.000
    O65     O    0.83235   0.52983   0.46000   1.000
    O66     O    0.83142   0.54534   0.46164   1.000
    Zr67    Zr   0.53463   0.07810   0.81261   1.000
    O68     O    0.46392   0.16858   0.79498   1.000
    O69     O    0.44749   0.16765   0.79334   1.000
    O70     O    0.44641   0.15085   0.79415   1.000
    O71     O    0.51987   0.05791   0.86820   1.000
loop_
    _geom_bond_atom_site_label_1
    _geom_bond_atom_site_label_2
    _geom_bond_distance
    _geom_bond_site_symmetry_2
    _ccdc_geom_bond_type
    Zr12   O13       1.56267  1_554   S
    N4     O13       3.75830      .   S
    Zr12   O14       3.38705      .   S
    N8     O14      10.57409      .   S
    Zr12   O15       3.36436      .   S
    N8     O15      10.59534      .   S
    Zr12   O16       3.72628      .   S
    N8     O16      10.22571      .   S
    Zr17   O18       3.41272      .   S
    N10    O18      10.69948      .   S
    Zr17   O19       3.43814      .   S
    N10    O19      10.67538      .   S
    Zr17   O20       3.76556      .   S
    N10    O20      10.33818      .   S
    Zr17   O21       1.56261      .   S
    N6     O21       3.75828      .   S
    Zr22   O23       1.56266      .   S
    N5     O23       3.75830  1_455   S
    Zr22   O24       3.40012      .   S
    N11    O24      10.53074      .   S
    Zr22   O25       3.71798      .   S
    N11    O25      10.20386      .   S
    Zr22   O26       3.39563      .   S
    N11    O26      10.53521      .   S
    Zr27   O28       1.56267      .   S
    N7     O28       3.75830      .   S
    Zr27   O29       3.38705      .   S
    N9     O29      10.57409      .   S
    Zr27   O30       3.36436      .   S
    N9     O30      10.59534      .   S
    Zr27   O31       3.72628      .   S
    N9     O31      10.22571      .   S
    Zr32   O33       1.56261      .   S
    N2     O33       3.75828  1_546   S
    Zr32   O34       3.76556      .   S
    N1     O34      10.33818      .   S
    Zr32   O35       3.41272      .   S
    N1     O35      10.69948      .   S
    Zr32   O36       3.43814      .   S
    N1     O36      10.67538      .   S
    Zr37   O38       3.40012      .   S
    N0     O38      10.53074      .   S
    Zr37   O39       3.71798      .   S
    N0     O39      10.20386      .   S
    Zr37   O40       3.39563      .   S
    N0     O40      10.53521      .   S
    Zr37   O41       1.56266      .   S
    N3     O41       3.75830      .   S
    Zr42   O43       1.56266      .   S
    N4     O43       3.75830      .   S
    Zr42   O44       3.36436      .   S
    N9     O44      10.59536      .   S
    Zr42   O45       3.38706      .   S
    N9     O45      10.57411      .   S
    Zr42   O46       3.72628      .   S
    N9     O46      10.22573      .   S
    Zr47   O48       3.43814      .   S
    N0     O48      10.67539      .   S
    Zr47   O49       3.76556      .   S
    N0     O49      10.33819      .   S
    Zr47   O50       1.56267  1_556   S
    N5     O50       3.75830      .   S
    Zr47   O51       3.41272      .   S
    N0     O51      10.69949      .   S
    Zr52   O53       1.56258      .   S
    N6     O53       3.75819  1_545   S
    Zr52   O54       3.39565      .   S
    N1     O54      10.53523      .   S
    Zr52   O55       3.71799      .   S
    N1     O55      10.20388      .   S
    Zr52   O56       3.40013      .   S
    N1     O56      10.53077      .   S
    Zr57   O58       1.56266      .   S
    N7     O58       3.75830      .   S
    Zr57   O59       3.36436      .   S
    N8     O59      10.59536      .   S
    Zr57   O60       3.38706      .   S
    N8     O60      10.57411      .   S
    Zr57   O61       3.72628      .   S
    N8     O61      10.22573      .   S
    Zr62   O63       1.56267      .   S
    N3     O63       3.75830  1_455   S
    Zr62   O64       3.41272      .   S
    N11    O64      10.69949      .   S
    Zr62   O65       3.43814      .   S
    N11    O65      10.67539      .   S
    Zr62   O66       3.76556      .   S
    N11    O66      10.33819      .   S
    Zr67   O68       3.40013      .   S
    N10    O68      10.53077      .   S
    Zr67   O69       3.71799      .   S
    N10    O69      10.20388      .   S
    Zr67   O70       3.39565      .   S
    N10    O70      10.53523      .   S
    Zr67   O71       1.56258      .   S
    N2     O71       3.75819      .   S
