####################################################################### 
# 
# This file contains crystal structure data downloaded from the 
# Cambridge Structural Database (CSD) hosted by the Cambridge 
# Crystallographic Data Centre (CCDC).
# 
# Full information about CCDC data access policies and citation 
# guidelines are available at http://www.ccdc.cam.ac.uk/access/V1 
# 
# Audit and citation data items may have been added by the CCDC. 
# Please retain this information to preserve the provenance of 
# this file and to allow appropriate attribution of the data. 
# 
#######################################################################

data_pcn_250_373_sq
_audit_block_doi                 10.5517/ccdc.csd.cc2dq9t8
_database_code_depnum_ccdc_archive 'CCDC 2225980'
loop_
_citation_id
_citation_doi
_citation_year
1 10.1021/jacs.2c13299 2023
loop_
_audit_author_name
_audit_author_address
'Wenmiao cwm-tamu'
;TAMU
United States of America
;
_audit_update_record             
;
2022-12-11 deposited with the CCDC.	2023-07-13 downloaded from the CCDC.
;
_audit_creation_date             2022-12-05
_audit_creation_method           
;
Olex2 1.5-beta
(compiled 2022.04.07 svn.rca3783a0 for OlexSys, GUI svn.r6498)
;
_shelx_SHELXL_version_number     2018/3
_chemical_name_common            ?
_chemical_name_systematic        ?
_chemical_formula_moiety         'C8 H3 Fe N O4.796'
_chemical_formula_sum            'C8 H3 Fe N O4.80'
_chemical_formula_weight         245.70
_chemical_absolute_configuration syn
_chemical_melting_point          ?
loop_
_atom_type_symbol
_atom_type_description
_atom_type_scat_dispersion_real
_atom_type_scat_dispersion_imag
_atom_type_scat_source
C C 0.0181 0.0091 'International Tables Vol C Tables 4.2.6.8 and 6.1.1.4'
H H 0.0000 0.0000 'International Tables Vol C Tables 4.2.6.8 and 6.1.1.4'
Fe Fe -1.1336 3.1974 'International Tables Vol C Tables 4.2.6.8 and 6.1.1.4'
N N 0.0311 0.0180 'International Tables Vol C Tables 4.2.6.8 and 6.1.1.4'
O O 0.0492 0.0322 'International Tables Vol C Tables 4.2.6.8 and 6.1.1.4'

_shelx_space_group_comment       
;
The symmetry employed for this shelxl refinement is uniquely defined
by the following loop, which should always be used as a source of
symmetry information in preference to the above space-group names.
They are only intended as comments.
;
_space_group_crystal_system      cubic
_space_group_IT_number           218
_space_group_name_H-M_alt        'P -4 3 n'
_space_group_name_Hall           'P -4n 2 3'
loop_
_space_group_symop_operation_xyz
'x, y, z'
'-x, -y, z'
'-x, y, -z'
'x, -y, -z'
'z, x, y'
'z, -x, -y'
'-z, -x, y'
'-z, x, -y'
'y, z, x'
'-y, z, -x'
'y, -z, -x'
'-y, -z, x'
'y+1/2, x+1/2, z+1/2'
'-y+1/2, -x+1/2, z+1/2'
'y+1/2, -x+1/2, -z+1/2'
'-y+1/2, x+1/2, -z+1/2'
'x+1/2, z+1/2, y+1/2'
'-x+1/2, z+1/2, -y+1/2'
'-x+1/2, -z+1/2, y+1/2'
'x+1/2, -z+1/2, -y+1/2'
'z+1/2, y+1/2, x+1/2'
'z+1/2, -y+1/2, -x+1/2'
'-z+1/2, y+1/2, -x+1/2'
'-z+1/2, -y+1/2, x+1/2'

_cell_length_a                   21.8827(3)
_cell_length_b                   21.8827(3)
_cell_length_c                   21.8827(3)
_cell_angle_alpha                90
_cell_angle_beta                 90
_cell_angle_gamma                90
_cell_volume                     10478.5(4)
_cell_formula_units_Z            24
_cell_measurement_reflns_used    2712
_cell_measurement_temperature    372.99(11)
_cell_measurement_theta_max      69.3740
_cell_measurement_theta_min      4.5080
_shelx_estimated_absorpt_T_max   0.680
_shelx_estimated_absorpt_T_min   0.543
_exptl_absorpt_coefficient_mu    6.952
_exptl_absorpt_correction_T_max  1.00000
_exptl_absorpt_correction_T_min  0.80531
_exptl_absorpt_correction_type   multi-scan
_exptl_absorpt_process_details   
;
CrysAlisPro 1.171.42.49 (Rigaku Oxford Diffraction, 2022)
Empirical absorption correction using spherical harmonics,
implemented in SCALE3 ABSPACK scaling algorithm.
;
_exptl_absorpt_special_details   ?
_exptl_crystal_colour            'clear light black'
_exptl_crystal_colour_lustre     clear
_exptl_crystal_colour_modifier   light
_exptl_crystal_colour_primary    black
_exptl_crystal_density_diffrn    0.934
_exptl_crystal_density_meas      ?
_exptl_crystal_density_method    ?
_exptl_crystal_description       block
_exptl_crystal_F_000             2937
_exptl_crystal_size_max          0.1
_exptl_crystal_size_mid          0.1
_exptl_crystal_size_min          0.06
_exptl_transmission_factor_max   ?
_exptl_transmission_factor_min   ?
_diffrn_reflns_av_R_equivalents  0.0505
_diffrn_reflns_av_unetI/netI     0.0406
_diffrn_reflns_Laue_measured_fraction_full 0.999
_diffrn_reflns_Laue_measured_fraction_max 0.998
_diffrn_reflns_limit_h_max       22
_diffrn_reflns_limit_h_min       -26
_diffrn_reflns_limit_k_max       18
_diffrn_reflns_limit_k_min       -23
_diffrn_reflns_limit_l_max       26
_diffrn_reflns_limit_l_min       -26
_diffrn_reflns_number            11946
_diffrn_reflns_point_group_measured_fraction_full 0.996
_diffrn_reflns_point_group_measured_fraction_max 0.996
_diffrn_reflns_theta_full        67.029
_diffrn_reflns_theta_max         67.029
_diffrn_reflns_theta_min         2.856
_diffrn_ambient_environment      air
_diffrn_ambient_temperature      372.99(11)
_diffrn_detector                 'Hybrid Pixel Array Detector'
_diffrn_detector_area_resol_mean 10.0000
_diffrn_detector_type            HyPix
_diffrn_measured_fraction_theta_full 0.999
_diffrn_measured_fraction_theta_max 0.998
_diffrn_measurement_details      
;
List of Runs (angles in degrees, time in seconds):

  # Type    Start    End  Width  t~exp~   \w     \q     \k     \f   Frames
#--------------------------------------------------------------------------
  1  \w    -81.00 -23.00   1.00    0.80    --  -25.73 -24.00 143.00   58
  2  \w    102.00 157.00   1.00    4.00    --   70.34 116.00  26.00   55
  3  \w    102.00 129.00   1.00   35.00    --  114.96  84.00 -11.00   27
  4  \w    106.00 176.00   1.00   35.00    --  114.96 103.00 126.00   70
  5  \w    -23.00  18.00   1.00    4.00    --  -69.25  11.00  30.00   41
  6  \w    -23.00   3.00   1.00    4.00    --  -69.25  12.00  90.00   26
  7  \w    -22.00  15.00   1.00    4.00    --  -69.25  11.00 150.00   37
  8  \w     13.00  40.00   1.00   35.00    --  114.96 -43.00  90.00   27
  9  \w     13.00  40.00   1.00   35.00    --  114.96 -43.00   0.00   27
 10  \w     12.00  62.00   1.00   35.00    --  114.96 -54.00-120.00   50
 11  \w     10.00  62.00   1.00   35.00    --  114.96 -54.00 150.00   52
 12  \w    147.00 172.00   1.00   35.00    --  114.96  84.00 -11.00   25
;
_diffrn_measurement_device       'four-circle diffractometer'
_diffrn_measurement_device_type  'XtaLAB Synergy, Dualflex, HyPix'
_diffrn_measurement_method       '\w scans'
_diffrn_orient_matrix_type       
'CrysAlisPro convention (1999,Acta A55,543-557)'
_diffrn_orient_matrix_UB_11      0.0174944000
_diffrn_orient_matrix_UB_12      -0.0161902000
_diffrn_orient_matrix_UB_13      -0.0662199000
_diffrn_orient_matrix_UB_21      0.0653827000
_diffrn_orient_matrix_UB_22      -0.0154212000
_diffrn_orient_matrix_UB_23      0.0210547000
_diffrn_orient_matrix_UB_31      -0.0193956000
_diffrn_orient_matrix_UB_32      -0.0667843000
_diffrn_orient_matrix_UB_33      0.0111209000
_diffrn_radiation_monochromator  mirror
_diffrn_radiation_probe          x-ray
_diffrn_radiation_type           'Cu K\a'
_diffrn_radiation_wavelength     1.54184
_diffrn_source                   'micro-focus sealed X-ray tube'
_diffrn_source_type              'PhotonJet (Cu) X-ray Source'
_reflns_Friedel_coverage         0.834
_reflns_Friedel_fraction_full    0.994
_reflns_Friedel_fraction_max     0.994
_reflns_number_gt                2832
_reflns_number_total             3117
_reflns_special_details          
;
 Reflections were merged by SHELXL according to the crystal
 class for the calculation of statistics and refinement.
 
 Structure factors included contributions from the .fab file.
 
 _reflns_Friedel_fraction is defined as the number of unique
 Friedel pairs measured divided by the number that would be
 possible theoretically, ignoring centric projections and
 systematic absences. Completness statistics refer to single and
 composite reflections containing twin component 1 only.
;
_reflns_threshold_expression     'I > 2\s(I)'
_computing_cell_refinement       'CrysAlisPro 1.171.42.49 (Rigaku OD, 2022)'
_computing_data_collection       'CrysAlisPro 1.171.42.49 (Rigaku OD, 2022)'
_computing_data_reduction        'CrysAlisPro 1.171.42.49 (Rigaku OD, 2022)'
_computing_molecular_graphics    'Olex2 1.5-beta (Dolomanov et al., 2009)'
_computing_publication_material  'Olex2 1.5-beta (Dolomanov et al., 2009)'
_computing_structure_refinement  'SHELXL 2018/3 (Sheldrick, 2015)'
_computing_structure_solution    ?
_refine_diff_density_max         0.275
_refine_diff_density_min         -0.493
_refine_diff_density_rms         0.055
_refine_ls_abs_structure_details 
;
 Refined as an inversion twin.
;
_refine_ls_abs_structure_Flack   0.086(13)
_refine_ls_extinction_coef       .
_refine_ls_extinction_method     none
_refine_ls_goodness_of_fit_ref   1.035
_refine_ls_hydrogen_treatment    constr
_refine_ls_matrix_type           full
_refine_ls_number_parameters     140
_refine_ls_number_reflns         3117
_refine_ls_number_restraints     0
_refine_ls_R_factor_all          0.0595
_refine_ls_R_factor_gt           0.0526
_refine_ls_restrained_S_all      1.035
_refine_ls_shift/su_max          0.000
_refine_ls_shift/su_mean         0.000
_refine_ls_structure_factor_coef Fsqd
_refine_ls_weighting_details     
'w=1/[\s^2^(Fo^2^)+(0.0637P)^2^+12.6446P] where P=(Fo^2^+2Fc^2^)/3'
_refine_ls_weighting_scheme      calc
_refine_ls_wR_factor_gt          0.1308
_refine_ls_wR_factor_ref         0.1356
_refine_special_details          
;
 Refined as a 2-component inversion twin.
;
_olex2_refinement_description    
;
1. Twinned data refinement
 Scales: 0.914(13)
 0.086(13)
2. Fixed Uiso
 At 1.2 times of:
  All C(H) groups
3. Others
 Fixed Sof: O1W(0.46264)
4.a Aromatic/amide H refined with riding coordinates:
 C3(H3), C6(H6), C8(H8)
;
_atom_sites_solution_hydrogens   geom
_atom_sites_solution_primary     ?
_atom_sites_solution_secondary   ?
loop_
_atom_site_label
_atom_site_type_symbol
_atom_site_fract_x
_atom_site_fract_y
_atom_site_fract_z
_atom_site_U_iso_or_equiv
_atom_site_adp_type
_atom_site_occupancy
_atom_site_site_symmetry_order
_atom_site_calc_flag
_atom_site_refinement_flags_posn
_atom_site_refinement_flags_adp
_atom_site_refinement_flags_occupancy
_atom_site_disorder_assembly
_atom_site_disorder_group
Fe1 Fe 0.23949(4) 0.69773(5) 0.81804(5) 0.0426(3) Uani 1 1 d . . . . .
O4 O 0.2041(2) 0.34985(18) 0.6680(2) 0.0444(11) Uani 1 1 d . . . . .
O2 O 0.2250(2) 0.62535(19) 0.7649(2) 0.0437(11) Uani 1 1 d . . . . .
O5 O 0.2447(2) 0.39254(19) 0.75233(19) 0.0414(10) Uani 1 1 d . . . . .
O3 O 0.1881(2) 0.67056(19) 0.6818(2) 0.0493(12) Uani 1 1 d . . . . .
C5 C 0.2215(3) 0.3951(2) 0.6994(3) 0.0338(13) Uani 1 1 d . . . . .
C3 C 0.2170(3) 0.5105(3) 0.7044(3) 0.0335(13) Uani 1 1 d . . . . .
H3 H 0.223270 0.508528 0.746421 0.040 Uiso 1 1 calc R U . . .
C4 C 0.2155(3) 0.4572(3) 0.6703(3) 0.0416(14) Uani 1 1 d . . . . .
C1 C 0.2086(3) 0.6249(2) 0.7105(3) 0.0345(13) Uani 1 1 d . . . . .
C2 C 0.2092(3) 0.5669(3) 0.6763(3) 0.0418(15) Uani 1 1 d . . . . .
C6 C 0.2089(4) 0.4602(3) 0.6081(3) 0.054(2) Uani 1 1 d . . . . .
H6 H 0.207651 0.424415 0.585112 0.065 Uiso 1 1 calc R U . . .
N1 N 0.2022(5) 0.5238(3) 0.5141(3) 0.082(3) Uani 1 1 d . . . . .
C7 C 0.2041(5) 0.5159(3) 0.5797(3) 0.059(2) Uani 1 1 d . . . . .
C8 C 0.2032(5) 0.5695(3) 0.6129(3) 0.058(2) Uani 1 1 d . . . . .
H8 H 0.198636 0.606858 0.593227 0.070 Uiso 1 1 calc R U . . .
O1 O 0.24044(19) 0.75956(19) 0.75956(19) 0.0362(14) Uani 1 3 d S T P . .
O1W O 0.2382(7) 0.6256(6) 0.8902(6) 0.069(3) Uani 0.4626 1 d . . P . .

loop_
_atom_site_aniso_label
_atom_site_aniso_U_11
_atom_site_aniso_U_22
_atom_site_aniso_U_33
_atom_site_aniso_U_23
_atom_site_aniso_U_13
_atom_site_aniso_U_12
Fe1 0.0227(4) 0.0523(6) 0.0527(6) -0.0262(5) 0.0016(4) 0.0023(4)
O4 0.069(3) 0.023(2) 0.041(2) 0.0010(17) -0.006(2) -0.005(2)
O2 0.059(3) 0.028(2) 0.043(3) -0.0040(19) -0.003(2) -0.0049(19)
O5 0.057(3) 0.029(2) 0.039(2) 0.0042(17) -0.006(2) 0.0040(18)
O3 0.072(3) 0.031(2) 0.045(2) -0.0022(19) -0.006(2) 0.011(2)
C5 0.036(3) 0.024(3) 0.041(3) 0.006(2) 0.005(2) 0.000(2)
C3 0.042(3) 0.027(3) 0.032(3) -0.004(2) 0.003(3) 0.002(2)
C4 0.058(4) 0.028(3) 0.038(3) 0.000(3) -0.001(3) -0.002(3)
C1 0.040(3) 0.023(3) 0.040(3) 0.001(2) 0.002(3) -0.003(2)
C2 0.063(4) 0.028(3) 0.034(3) -0.003(2) 0.003(3) 0.007(3)
C6 0.104(6) 0.022(3) 0.036(3) -0.003(3) 0.012(4) -0.003(3)
N1 0.192(9) 0.024(3) 0.029(3) -0.001(2) 0.000(4) -0.004(4)
C7 0.114(7) 0.026(3) 0.035(3) -0.005(3) 0.001(4) 0.004(4)
C8 0.119(7) 0.017(3) 0.039(3) 0.001(2) 0.003(4) 0.006(3)
O1 0.0362(14) 0.0362(14) 0.0362(14) -0.0063(15) 0.0063(15) 0.0063(15)
O1W 0.065(7) 0.072(8) 0.072(8) 0.010(6) 0.008(7) -0.021(7)

_geom_special_details            
;
 All esds (except the esd in the dihedral angle between two l.s. planes)
 are estimated using the full covariance matrix.  The cell esds are taken
 into account individually in the estimation of esds in distances, angles
 and torsion angles; correlations between esds in cell parameters are only
 used when they are defined by crystal symmetry.  An approximate (isotropic)
 treatment of cell esds is used for estimating esds involving l.s. planes.
;
loop_
_geom_bond_atom_site_label_1
_geom_bond_atom_site_label_2
_geom_bond_distance
_geom_bond_site_symmetry_2
_geom_bond_publ_flag
Fe1 O4 1.984(4) 16_556 ?
Fe1 O2 1.991(4) . ?
Fe1 O5 1.993(4) 19_565 ?
Fe1 O3 2.004(4) 10_656 ?
Fe1 O1 1.8624(12) . ?
Fe1 O1W 2.233(12) . ?
O4 C5 1.264(8) . ?
O2 C1 1.243(7) . ?
O5 C5 1.266(8) . ?
O3 C1 1.261(7) . ?
C5 C4 1.506(8) . ?
C3 H3 0.9300 . ?
C3 C4 1.386(8) . ?
C3 C2 1.390(8) . ?
C4 C6 1.370(9) . ?
C1 C2 1.475(8) . ?
C2 C8 1.395(9) . ?
C6 H6 0.9300 . ?
C6 C7 1.373(9) . ?
N1 N1 1.209(11) 4_566 ?
N1 C7 1.447(9) . ?
C7 C8 1.379(9) . ?
C8 H8 0.9300 . ?

loop_
_geom_angle_atom_site_label_1
_geom_angle_atom_site_label_2
_geom_angle_atom_site_label_3
_geom_angle
_geom_angle_site_symmetry_1
_geom_angle_site_symmetry_3
_geom_angle_publ_flag
O4 Fe1 O2 89.4(2) 16_556 . ?
O4 Fe1 O5 90.4(2) 16_556 19_565 ?
O4 Fe1 O3 172.28(19) 16_556 10_656 ?
O4 Fe1 O1W 85.9(4) 16_556 . ?
O2 Fe1 O5 160.40(18) . 19_565 ?
O2 Fe1 O3 88.8(2) . 10_656 ?
O2 Fe1 O1W 81.3(4) . . ?
O5 Fe1 O3 88.8(2) 19_565 10_656 ?
O5 Fe1 O1W 79.1(4) 19_565 . ?
O3 Fe1 O1W 86.4(4) 10_656 . ?
O1 Fe1 O4 93.7(2) . 16_556 ?
O1 Fe1 O2 100.3(2) . . ?
O1 Fe1 O5 99.3(2) . 19_565 ?
O1 Fe1 O3 94.0(2) . 10_656 ?
O1 Fe1 O1W 178.4(4) . . ?
C5 O4 Fe1 135.3(4) . 15_456 ?
C1 O2 Fe1 127.7(4) . . ?
C5 O5 Fe1 127.4(4) . 18_546 ?
C1 O3 Fe1 135.6(4) . 7_665 ?
O4 C5 O5 125.6(5) . . ?
O4 C5 C4 116.8(5) . . ?
O5 C5 C4 117.6(5) . . ?
C4 C3 H3 119.8 . . ?
C4 C3 C2 120.3(6) . . ?
C2 C3 H3 119.8 . . ?
C3 C4 C5 121.9(6) . . ?
C6 C4 C5 118.2(6) . . ?
C6 C4 C3 119.9(6) . . ?
O2 C1 O3 125.0(5) . . ?
O2 C1 C2 119.3(5) . . ?
O3 C1 C2 115.6(6) . . ?
C3 C2 C1 122.7(6) . . ?
C3 C2 C8 119.2(5) . . ?
C8 C2 C1 118.0(5) . . ?
C4 C6 H6 120.0 . . ?
C4 C6 C7 120.0(6) . . ?
C7 C6 H6 120.0 . . ?
N1 N1 C7 113.8(7) 4_566 . ?
C6 C7 N1 123.9(6) . . ?
C6 C7 C8 121.2(7) . . ?
C8 C7 N1 114.9(6) . . ?
C2 C8 H8 120.4 . . ?
C7 C8 C2 119.2(6) . . ?
C7 C8 H8 120.4 . . ?
Fe1 O1 Fe1 119.974(13) 10_656 7_665 ?
Fe1 O1 Fe1 119.976(13) 7_665 . ?
Fe1 O1 Fe1 119.972(13) 10_656 . ?

loop_
_geom_torsion_atom_site_label_1
_geom_torsion_atom_site_label_2
_geom_torsion_atom_site_label_3
_geom_torsion_atom_site_label_4
_geom_torsion
_geom_torsion_site_symmetry_1
_geom_torsion_site_symmetry_2
_geom_torsion_site_symmetry_3
_geom_torsion_site_symmetry_4
_geom_torsion_publ_flag
Fe1 O4 C5 O5 4.5(10) 15_456 . . . ?
Fe1 O4 C5 C4 -177.1(5) 15_456 . . . ?
Fe1 O2 C1 O3 -12.5(10) . . . . ?
Fe1 O2 C1 C2 171.0(5) . . . . ?
Fe1 O5 C5 O4 -0.2(9) 18_546 . . . ?
Fe1 O5 C5 C4 -178.6(4) 18_546 . . . ?
Fe1 O3 C1 O2 10.0(11) 7_665 . . . ?
Fe1 O3 C1 C2 -173.3(5) 7_665 . . . ?
O4 Fe1 O1 Fe1 -46.1(4) 16_556 . . 7_665 ?
O4 Fe1 O1 Fe1 137.1(4) 16_556 . . 10_656 ?
O4 C5 C4 C3 162.2(6) . . . . ?
O4 C5 C4 C6 -18.3(10) . . . . ?
O2 Fe1 O1 Fe1 -132.9(4) . . . 10_656 ?
O2 Fe1 O1 Fe1 43.9(4) . . . 7_665 ?
O2 C1 C2 C3 11.6(10) . . . . ?
O2 C1 C2 C8 -166.6(7) . . . . ?
O5 Fe1 O1 Fe1 -137.1(4) 19_565 . . 7_665 ?
O5 Fe1 O1 Fe1 46.1(4) 19_565 . . 10_656 ?
O5 C5 C4 C3 -19.3(9) . . . . ?
O5 C5 C4 C6 160.2(7) . . . . ?
O3 Fe1 O1 Fe1 133.4(4) 10_656 . . 7_665 ?
O3 Fe1 O1 Fe1 -43.4(4) 10_656 . . 10_656 ?
O3 C1 C2 C3 -165.2(6) . . . . ?
O3 C1 C2 C8 16.5(10) . . . . ?
C5 C4 C6 C7 -179.1(8) . . . . ?
C3 C4 C6 C7 0.4(13) . . . . ?
C3 C2 C8 C7 1.1(13) . . . . ?
C4 C3 C2 C1 178.2(6) . . . . ?
C4 C3 C2 C8 -3.5(11) . . . . ?
C4 C6 C7 N1 174.6(9) . . . . ?
C4 C6 C7 C8 -2.8(15) . . . . ?
C1 C2 C8 C7 179.4(8) . . . . ?
C2 C3 C4 C5 -177.7(6) . . . . ?
C2 C3 C4 C6 2.8(11) . . . . ?
C6 C7 C8 C2 2.0(15) . . . . ?
N1 N1 C7 C6 3.4(12) 4_566 . . . ?
N1 N1 C7 C8 -179.0(7) 4_566 . . . ?
N1 C7 C8 C2 -175.6(9) . . . . ?

_smtbx_masks_special_details     ?
loop_
_smtbx_masks_void_nr
_smtbx_masks_void_average_x
_smtbx_masks_void_average_y
_smtbx_masks_void_average_z
_smtbx_masks_void_volume
_smtbx_masks_void_count_electrons
_smtbx_masks_void_content
1 -0.315 -0.269 -0.800 6263.4 147.6 ?

_smtbx_masks_void_probe_radius   1.2
_smtbx_masks_void_truncation_radius 1.2
_shelx_res_file                  
;
TITL pcn_250vt_2_373_00_auto_a.res in P-43n
    pcn_250_373_sq.res
    created by SHELXL-2018/3 at 22:09:24 on 05-Dec-2022
REM Old TITL PCN_250VT_2_373_00_auto in P4(2)32
REM SHELXT solution in P-43n
REM R1 0.180, Rweak 0.060, Alpha 0.014, Orientation as input
REM Flack x = -0.278 ( 0.022 ) from Parsons' quotients
REM Formula found by SHELXT: C27 N3 O10 Cl3
CELL 1.54184 21.88266 21.88266 21.88266 90 90 90
ZERR 24 0.000263 0.000263 0.000263 0 0 0
LATT -1
SYMM -X,-Y,+Z
SYMM -X,+Y,-Z
SYMM +X,-Y,-Z
SYMM +Z,+X,+Y
SYMM +Z,-X,-Y
SYMM -Z,-X,+Y
SYMM -Z,+X,-Y
SYMM +Y,+Z,+X
SYMM -Y,+Z,-X
SYMM +Y,-Z,-X
SYMM -Y,-Z,+X
SYMM 0.5+Y,0.5+X,0.5+Z
SYMM 0.5-Y,0.5-X,0.5+Z
SYMM 0.5+Y,0.5-X,0.5-Z
SYMM 0.5-Y,0.5+X,0.5-Z
SYMM 0.5+X,0.5+Z,0.5+Y
SYMM 0.5-X,0.5+Z,0.5-Y
SYMM 0.5-X,0.5-Z,0.5+Y
SYMM 0.5+X,0.5-Z,0.5-Y
SYMM 0.5+Z,0.5+Y,0.5+X
SYMM 0.5+Z,0.5-Y,0.5-X
SYMM 0.5-Z,0.5+Y,0.5-X
SYMM 0.5-Z,0.5-Y,0.5+X
SFAC C H Fe N O
UNIT 192 72 24 24 115.11

L.S. 5 0 6
PLAN  16
SIZE 0.06 0.1 0.1
TEMP 100
CONF
MORE -1
BOND $H
ABIN
fmap 2
acta
SHEL 999 0.837
TWIN -1 0 0 0 -1 0 0 0 -1 2
OMIT 0 1 16
REM <olex2.extras>
REM <HklSrc "%.\\PCN_250_373.hkl">
REM </olex2.extras>

WGHT    0.063700   12.644600
BASF   0.08599
FVAR       0.88511
FE1   3    0.239490    0.697733    0.818043    11.00000    0.02273    0.05226 =
         0.05274   -0.02619    0.00160    0.00225
O4    5    0.204136    0.349854    0.668014    11.00000    0.06908    0.02293 =
         0.04115    0.00098   -0.00633   -0.00535
O2    5    0.225024    0.625353    0.764868    11.00000    0.05940    0.02825 =
         0.04338   -0.00397   -0.00258   -0.00492
O5    5    0.244688    0.392543    0.752334    11.00000    0.05693    0.02866 =
         0.03851    0.00422   -0.00551    0.00404
O3    5    0.188138    0.670557    0.681809    11.00000    0.07180    0.03060 =
         0.04549   -0.00224   -0.00632    0.01126
C5    1    0.221538    0.395135    0.699372    11.00000    0.03609    0.02395 =
         0.04140    0.00555    0.00469    0.00042
C3    1    0.216994    0.510506    0.704435    11.00000    0.04174    0.02728 =
         0.03151   -0.00398    0.00264    0.00246
AFIX  43
H3    2    0.223270    0.508528    0.746421    11.00000   -1.20000
AFIX   0
C4    1    0.215510    0.457207    0.670259    11.00000    0.05841    0.02843 =
         0.03786   -0.00006   -0.00109   -0.00156
C1    1    0.208562    0.624930    0.710520    11.00000    0.04022    0.02330 =
         0.04005    0.00105    0.00150   -0.00323
C2    1    0.209154    0.566889    0.676293    11.00000    0.06303    0.02774 =
         0.03448   -0.00299    0.00281    0.00716
C6    1    0.208901    0.460153    0.608079    11.00000    0.10404    0.02226 =
         0.03552   -0.00298    0.01152   -0.00319
AFIX  43
H6    2    0.207651    0.424415    0.585112    11.00000   -1.20000
AFIX   0
N1    4    0.202166    0.523765    0.514062    11.00000    0.19193    0.02431 =
         0.02868   -0.00113   -0.00006   -0.00353
C7    1    0.204125    0.515894    0.579688    11.00000    0.11447    0.02623 =
         0.03539   -0.00460    0.00121    0.00404
C8    1    0.203190    0.569457    0.612890    11.00000    0.11937    0.01739 =
         0.03873    0.00135    0.00280    0.00568
AFIX  43
H8    2    0.198636    0.606858    0.593227    11.00000   -1.20000
AFIX   0
O1    5    0.240436    0.759564    0.759564    10.33333    0.03616    0.03616 =
         0.03616   -0.00634    0.00634    0.00634
O1W   5    0.238238    0.625610    0.890223    10.46264    0.06489    0.07167 =
         0.07158    0.01028    0.00827   -0.02054
HKLF 4




REM  pcn_250vt_2_373_00_auto_a.res in P-43n
REM wR2 = 0.1356, GooF = S = 1.035, Restrained GooF = 1.035 for all data
REM R1 = 0.0526 for 2832 Fo > 4sig(Fo) and 0.0595 for all 3117 data
REM 140 parameters refined using 0 restraints

END

WGHT      0.0638     12.6328

REM Highest difference peak  0.275,  deepest hole -0.493,  1-sigma level  0.055
Q1    1   0.2462  0.6637  0.8328  11.00000  0.05    0.27
Q2    1   0.2233  0.6741  0.7679  11.00000  0.05    0.27
Q3    1   0.2299  0.4036  0.8080  11.00000  0.05    0.25
Q4    1   0.1818  0.3348  0.6976  11.00000  0.05    0.22
Q5    1   0.1832  0.7601  0.7616  11.00000  0.05    0.21
Q6    1   0.2167  0.7802  0.7496  11.00000  0.05    0.21
Q7    1   0.3438  0.3438  0.6562  10.33333  0.05    0.20
Q8    1   0.3017  0.6287  0.7595  11.00000  0.05    0.20
Q9    1   0.2533  0.6196  0.7413  11.00000  0.05    0.19
Q10   1   0.1808  0.7111  0.6209  11.00000  0.05    0.19
Q11   1   0.2513  0.6834  0.9151  11.00000  0.05    0.18
Q12   1   0.2390  0.6466  0.8887  11.00000  0.05    0.18
Q13   1   0.2795  0.4771  0.6882  11.00000  0.05    0.18
Q14   1   0.2326  0.6452  0.6347  11.00000  0.05    0.18
Q15   1   0.1777  0.7041  0.6836  11.00000  0.05    0.17
Q16   1   0.2488  0.6519  0.9544  11.00000  0.05    0.16
;
_shelx_res_checksum              28094
_shelx_hkl_file                  
;
   0   1  -1 157.314 24.4219   1
   0  -1  -1 138.798 24.5931   1
   0   0  -2 999999. 22413.2   1
   1   1  -2 33544.3 795.398   1
   1   0  -2 2352.10 96.3753   1
   0   1  -2 2536.65 96.0741   1
   0   2  -1 2025.59 70.7123   1
   0  -2  -1 2433.28 74.1409   1
   0  -1  -2 2005.68 91.2348   1
   1  -1  -2 28415.6 681.545   1
   1   2  -2 285.643 54.6062   1
   0   2  -2 157212. 3522.85   1
   0  -2  -2 153941. 3523.50   1
   1  -2  -2 286.713 57.2251   1
   0   0  -3 32.0243 70.7637   1
  -1  -1  -3 100.775 78.0553   1
   1   1  -3 138.068 64.1302   1
   0  -1  -3 81140.9 1898.77   1
   0   1  -3 82123.5 1898.08   1
   0  -3  -1 81703.1 1854.47   1
   1   0  -3 83220.3 1895.56   1
  -1   0  -3 82748.5 1904.08   1
   0   3  -1 81759.7 1852.71   1
   1  -1  -3 92.6244 64.6589   1
  -1   1  -3 102.627 75.0016   1
   2   2  -3 413.835 81.2964   1
  -1  -2  -3 3676.45 155.997   1
   1   2  -3 3865.69 146.132   1
   1   3  -2 3550.34 123.037   1
   2   1  -3 3483.28 151.238   1
   2   0  -3 63862.0 1489.18   1
   0   2  -3 63886.8 1483.24   1
   0   3  -2 64103.6 1462.08   1
   0  -3  -2 61754.9 1462.74   1
   0  -2  -3 64416.1 1487.05   1
   2  -1  -3 2572.62 132.822   1
   1  -2  -3 2678.90 123.354   1
   1  -3  -2 2425.61 101.033   1
  -1   2  -3 2512.49 126.001   1
   2  -2  -3 239.381 79.2861   1
   2   3  -3 27920.8 696.799   1
   1   3  -3 274.218 74.5297   1
   0   3  -3 46767.8 1097.16   1
   0  -3  -3 45698.3 1099.31   1
   1  -3  -3 126.338 74.8282   1
   2  -3  -3 28419.0 710.976   1
   0   0  -4 199346. 4543.72   1
  -1  -1  -4 7348.75 262.221   1
   1   4  -1 7880.25 200.746   1
   1   1  -4 7946.70 258.532   1
   0   1  -4 29738.4 773.830   1
   1   0  -4 32134.1 778.641   1
   0  -1  -4 31208.7 780.045   1
  -1   0  -4 30777.7 783.057   1
   1  -4  -1 6171.24 164.182   1
  -1   1  -4 5957.25 226.070   1
   1  -1  -4 5625.90 213.647   1
   2   4  -2 5967.81 186.767   1
   2   2  -4 6062.76 226.826   1
   1   4  -2 15888.2 404.627   1
   1   2  -4 16578.4 446.877   1
  -1  -2  -4 16182.2 455.976   1
   2   1  -4 16551.8 454.318   1
   0   2  -4 2927.09 154.067   1
   2   0  -4 2864.77 157.231   1
   0   4  -2 2379.45 100.043   1
   0  -2  -4 2631.24 151.939   1
   0  -4  -2 2806.22 108.205   1
   1  -4  -2 15152.6 391.594   1
   1  -2  -4 15248.3 430.176   1
  -1   2  -4 15931.9 437.521   1
   2  -1  -4 15694.7 437.583   1
   2  -2  -4 3234.79 166.454   1
   2  -4  -2 2961.47 127.508   1
   3   4  -3 1757.30 124.139   1
   3   3  -4 1610.59 142.855   1
   2   4  -3 1400.34 111.601   1
   2   3  -4 1565.48 126.722   1
   3   1  -4 542.416 113.644   1
   1   4  -3 533.433 80.2033   1
  -1  -3  -4 625.630 114.982   1
   1   3  -4 437.170 97.8088   1
   0   3  -4 1465.07 125.335   1
   0  -4  -3 1354.58 105.135   1
   3   0  -4 1706.32 148.280   1
   0   4  -3 1538.52 98.6575   1
   0  -3  -4 1557.63 128.555   1
   3  -1  -4 990.071 123.483   1
   1  -4  -3 776.187 88.9091   1
  -1   3  -4 886.686 115.168   1
   1  -3  -4 1218.17 118.458   1
   2  -4  -3 2192.23 128.611   1
   3  -2  -4 1983.92 154.192   1
   2  -3  -4 1897.26 138.523   1
   3  -3  -4 2929.45 172.665   1
   3  -4  -3 2566.22 146.212   1
   4   4  -4 20005.5 558.502   1
   3   4  -4 180.046 108.030   1
   2   4  -4 15284.7 429.198   1
   1   4  -4 50.8092 88.7789   1
   0  -4  -4 2186.40 142.109   1
   0   4  -4 2084.36 134.412   1
   1  -4  -4 81.6910 96.8780   1
   2  -4  -4 11134.6 343.283   1
   3  -4  -4 136.687 118.224   1
   4  -4  -4 13729.5 422.653   1
   0   0  -5 33.0343 125.867   1
  -1  -1  -5 46.2171 129.992   1
   1   1  -5 79.6856 118.949   1
   1   5  -1 194.938 34.9120   1
   1   0  -5 70751.7 1710.29   1
   0   1  -5 72330.7 1715.53   1
  -1   0  -5 72242.2 1719.42   1
   0  -1  -5 72092.4 1717.36   1
   1  -5  -1 154.091 37.7833   1
   1  -1  -5 102.710 119.594   1
  -1   1  -5 142.000 126.300   1
   2   2  -5 5.49574 113.452   1
   2   5  -2 38.2025 63.6241   1
   2   1  -5 3552.98 191.446   1
   1   5  -2 3513.62 123.165   1
  -1  -2  -5 3670.31 201.713   1
   1   2  -5 3659.63 188.238   1
   0  -2  -5 19751.7 552.494   1
   2   0  -5 19924.6 551.201   1
   0   2  -5 19200.1 543.140   1
  -1   2  -5 2460.94 169.589   1
   2  -1  -5 2201.27 164.991   1
   1  -2  -5 2097.68 156.302   1
   1  -5  -2 2014.33 95.6768   1
   2  -5  -2 41.2269 68.3472   1
   2  -2  -5 68.1856 119.022   1
   3   3  -5 330.059 140.051   1
   3   5  -3 388.232 96.1717   1
   3   2  -5 13528.0 413.827   1
   2   3  -5 13472.8 403.116   1
   2   5  -3 12395.5 356.071   1
   1   5  -3 10898.0 301.544   1
   3   1  -5 10365.6 358.518   1
   1   3  -5 10424.1 341.329   1
  -1  -3  -5 9935.16 350.987   1
   0   5  -3 55743.8 1309.77   1
   0   3  -5 57161.5 1358.07   1
   0  -3  -5 55230.0 1360.63   1
   3   0  -5 57363.4 1372.24   1
   0  -5  -3 54609.1 1313.83   1
   3  -1  -5 10411.1 358.106   1
   1  -5  -3 10099.9 298.733   1
  -1   3  -5 10487.8 344.368   1
   1  -3  -5 10455.7 345.051   1
   2  -5  -3 14855.6 410.620   1
   3  -2  -5 15748.0 465.383   1
   2  -3  -5 14946.3 451.411   1
   3  -3  -5 270.447 139.694   1
   3  -5  -3 265.098 104.200   1
   4   5  -4 46.0842 123.525   1
   4   4  -5 142.551 135.659   1
   3   4  -5 2032.57 163.351   1
   4   3  -5 1975.32 184.233   1
   3   5  -4 1706.24 141.856   1
   2   4  -5 286.359 122.104   1
   4   2  -5 292.454 136.726   1
   2   5  -4 366.692 99.4980   1
   1   4  -5 2261.76 163.355   1
   4   1  -5 2161.27 180.927   1
   1   5  -4 2480.92 142.061   1
   0   4  -5 1983.71 151.536   1
   0  -4  -5 1836.14 164.994   1
   0  -5  -4 2088.99 140.413   1
   4   0  -5 1787.59 188.104   1
   0   5  -4 1931.55 132.218   1
   1  -5  -4 1424.41 131.066   1
   1  -4  -5 1451.91 149.386   1
   4  -1  -5 1696.45 172.812   1
   4  -2  -5 212.086 145.714   1
   2  -5  -4 335.147 105.793   1
   2  -4  -5 141.232 126.175   1
   3  -4  -5 3545.62 202.794   1
   4  -3  -5 3210.83 218.190   1
   3  -5  -4 3396.62 184.890   1
   4  -4  -5 43.1694 147.652   1
   4  -5  -4 67.9653 129.176   1
   5   5  -5 377.009 154.962   1
   5   4  -5 1912.72 192.605   1
   4   5  -5 2160.84 181.119   1
   3   5  -5 220.439 119.042   1
   5   3  -5 255.485 153.859   1
   2   5  -5 1697.21 145.988   1
   1   5  -5 245.954 112.295   1
   0   5  -5 35349.8 882.170   1
   0  -5  -5 33864.5 886.630   1
   1  -5  -5 279.441 124.810   1
   2  -5  -5 1529.77 153.613   1
   5  -3  -5 144.345 166.884   1
   3  -5  -5 148.184 128.650   1
   5  -4  -5 3047.46 224.337   1
   4  -5  -5 3166.45 212.202   1
   5  -5  -5 290.367 160.287   1
   0   0  -6 101.046 157.196   1
  -1  -1  -6 1453.97 185.471   1
   1   1  -6 1421.63 176.445   1
   0  -1  -6 13367.0 428.864   1
  -1   0  -6 12540.9 423.239   1
   1   0  -6 12636.1 419.644   1
   0   1  -6 12955.4 420.015   1
  -1   1  -6 1058.32 171.734   1
   1  -1  -6 1153.20 173.374   1
   2   2  -6 4873.96 240.923   1
   1   2  -6 10766.3 373.456   1
   2   1  -6 10677.0 372.057   1
  -1  -2  -6 11003.9 386.847   1
   0   2  -6 756.760 152.030   1
   0  -2  -6 721.592 154.782   1
   2   0  -6 880.338 167.971   1
   2  -1  -6 10426.6 372.241   1
   1  -2  -6 11029.3 377.877   1
  -1   2  -6 11428.1 385.748   1
   1  -6  -2 10804.0 284.782   1
   2  -6  -1 10606.1 280.208   1
   2  -6  -2 3637.14 140.168   1
   2  -2  -6 4000.70 228.868   1
   3   3  -6 5806.24 269.735   1
   2   3  -6 29126.0 786.402   1
   3   2  -6 29633.1 796.197   1
   3   1  -6 704.440 170.122   1
   1   3  -6 574.161 151.349   1
  -1  -3  -6 882.444 163.982   1
   0   3  -6 40381.8 1045.07   1
   3   0  -6 40974.2 1056.30   1
   0  -3  -6 41536.2 1054.67   1
   1  -6  -3 580.940 88.8008   1
  -1   3  -6 659.145 153.440   1
   1  -3  -6 785.103 157.679   1
   3  -1  -6 637.824 171.216   1
   2  -6  -3 27342.9 689.623   1
   3  -6  -2 27073.7 685.444   1
   2  -3  -6 28028.1 754.210   1
   3  -2  -6 28154.5 761.238   1
   3  -3  -6 6678.28 294.599   1
   3  -6  -3 6150.80 233.509   1
   4   4  -6 8537.16 339.239   1
   3   4  -6 3414.36 215.606   1
   4   3  -6 3154.36 220.194   1
   4   2  -6 4245.71 252.823   1
   2   4  -6 4041.49 222.562   1
   4   1  -6 3827.14 245.403   1
  -1  -4  -6 3790.64 230.028   1
   1   4  -6 3755.68 213.726   1
   0   4  -6 1565.85 165.120   1
   4   0  -6 2056.20 208.843   1
   0  -4  -6 1988.53 189.437   1
   0  -6  -4 1536.94 129.107   1
   1  -4  -6 4118.85 231.714   1
   4  -1  -6 4153.35 261.034   1
  -1   4  -6 4268.93 230.314   1
   1  -6  -4 3967.55 184.914   1
   2  -4  -6 3962.43 232.412   1
   2  -6  -4 3651.63 180.964   1
   4  -2  -6 3743.01 250.202   1
   4  -3  -6 4116.26 249.233   1
   3  -6  -4 3562.56 192.544   1
   3  -4  -6 3540.85 234.343   1
   4  -6  -3 3991.81 191.196   1
   4  -6  -4 5203.32 240.350   1
   4  -4  -6 5353.29 276.191   1
   6   5  -5 728.065 169.105   1
   5   5  -6 950.760 182.293   1
   5   4  -6 3407.91 242.073   1
   4   5  -6 3023.66 213.892   1
   3   5  -6 611.892 148.604   1
   5   3  -6 560.094 163.804   1
   5   2  -6 23236.8 686.117   1
   2   5  -6 22638.3 643.273   1
   1   5  -6 1196.41 159.121   1
   5   1  -6 1319.01 201.251   1
   0  -5  -6 20612.4 596.978   1
   0   5  -6 20262.9 584.312   1
   0  -6  -5 19965.8 570.069   1
   5   0  -6 20567.9 626.418   1
   1  -6  -5 1191.88 145.865   1
   1  -5  -6 1009.79 161.567   1
   5  -1  -6 1052.74 201.598   1
   2  -6  -5 23047.3 630.098   1
   5  -2  -6 22663.9 684.237   1
   2  -5  -6 22413.6 650.867   1
   3  -6  -5 1393.88 159.133   1
   5  -3  -6 1761.13 206.126   1
   3  -5  -6 1271.12 174.754   1
   5  -6  -4 3293.32 211.980   1
   4  -5  -6 3119.59 225.205   1
   4  -6  -5 3243.45 208.038   1
   5  -4  -6 3187.39 242.262   1
   5  -5  -6 91.0407 173.720   1
   6  -5  -5 140.816 170.052   1
   5  -6  -5 16.4635 158.338   1
   6   5  -6 57.5876 183.139   1
   6   4  -6 1952.41 228.324   1
   6   3  -6 37.0730 165.261   1
   6   2  -6 4536.25 283.422   1
   6   1  -6 201.710 178.591   1
   0  -6  -6 16667.8 516.990   1
   6   0  -6 16529.7 551.292   1
   6  -1  -6 334.344 183.784   1
   1  -6  -6 345.844 145.531   1
   2  -6  -6 7170.79 305.382   1
   6  -2  -6 7118.91 346.453   1
   3  -6  -6 124.457 153.638   1
   6  -3  -6 9.63443 178.901   1
   6  -4  -6 3546.25 262.206   1
   4  -6  -6 3317.86 233.020   1
   5  -6  -6 163.700 180.408   1
   6  -6  -5 91.1111 168.785   1
   6  -5  -6 102.417 193.400   1
   6  -6  -6 15412.1 539.214   1
   0   0  -7-40.0909 177.626   1
   1   1  -7 380.845 165.502   1
  -1  -1  -7 466.349 176.011   1
   0  -1  -7 43998.7 1177.40   1
   0   1  -7 46274.9 1177.75   1
  -1   0  -7 46093.4 1184.93   1
   1   0  -7 46387.2 1182.48   1
  -1   1  -7 253.775 168.225   1
   1  -1  -7 169.525 168.182   1
   2   2  -7 141.611 165.916   1
   2   1  -7 2327.27 220.787   1
  -1  -2  -7 2909.39 226.795   1
   1   2  -7 2458.96 216.128   1
   0  -2  -7 21970.1 659.082   1
   0   2  -7 22073.5 651.545   1
   2   0  -7 22580.9 656.268   1
  -1   2  -7 2025.14 205.523   1
   1  -2  -7 2118.16 215.316   1
   2  -1  -7 2431.03 227.792   1
   2  -2  -7-48.8180 177.136   1
   3   3  -7 130.690 166.472   1
   3   2  -7 2628.15 219.978   1
   2   3  -7 2504.80 214.284   1
   1   3  -7 7084.68 313.537   1
  -1  -3  -7 6686.33 323.348   1
   3   1  -7 6686.01 312.278   1
   0  -3  -7 10044.2 397.323   1
   0   3  -7 10963.3 399.168   1
   3   0  -7 10671.0 405.490   1
   1  -3  -7 6132.26 299.191   1
   3  -1  -7 6426.91 305.070   1
  -1   3  -7 6153.05 303.453   1
   2  -3  -7 2186.43 210.619   1
   3  -2  -7 2317.02 220.862   1
   3  -3  -7 25.7173 165.628   1
   4   4  -7 34.9093 176.761   1
   3   4  -7 245.873 155.392   1
   4   3  -7 242.833 184.665   1
   4   2  -7 631.604 174.570   1
   2   4  -7 829.003 169.034   1
   1   4  -7 571.539 167.656   1
  -1  -4  -7 767.654 191.933   1
   4   1  -7 574.330 185.916   1
   4   0  -7 1829.43 211.220   1
   0  -4  -7 2001.49 212.472   1
   0   4  -7 2251.92 207.475   1
   4  -1  -7 415.319 195.531   1
  -1   4  -7 339.168 165.957   1
   1  -4  -7 169.843 167.132   1
   2  -4  -7 775.118 173.904   1
   4  -2  -7 597.746 178.754   1
   4  -3  -7 172.523 197.409   1
   3  -4  -7 305.828 169.674   1
   4  -4  -7 148.425 183.835   1
   5   5  -7 65.9168 190.141   1
   5   4  -7 621.798 197.826   1
   4   5  -7 385.687 174.948   1
   3   5  -7 3437.20 235.629   1
   5   3  -7 3254.24 262.394   1
   2   5  -7 755.364 176.281   1
   5   2  -7 439.833 208.078   1
   1   5  -7 1752.40 186.624   1
   5   1  -7 1456.73 225.391   1
   0  -5  -7 6276.09 312.857   1
   0   5  -7 6922.88 304.535   1
   5   0  -7 6798.84 347.304   1
   1  -5  -7 1662.67 208.376   1
   5  -1  -7 1507.06 234.099   1
   2  -5  -7 219.121 180.002   1
   5  -2  -7 452.701 214.178   1
   5  -3  -7 3170.80 259.982   1
   3  -5  -7 2504.71 231.192   1
   5  -4  -7-119.751 203.146   1
   4  -5  -7 104.024 176.446   1
   5  -5  -7-20.2337 195.467   1
   6   5  -7 3322.51 273.001   1
   7   5  -6 3055.11 265.442   1
   6   4  -7 760.145 225.447   1
   7   4  -6 873.852 220.981   1
   6   3  -7 2229.11 251.369   1
   7   3  -6 2019.96 227.655   1
   6   2  -7 5148.64 325.589   1
   6   1  -7 6119.51 331.552   1
   0  -6  -7 5566.17 295.669   1
   6   0  -7 6269.44 355.810   1
   6  -1  -7 5758.61 330.650   1
   1  -6  -7 5532.84 292.139   1
   6  -2  -7 6499.60 360.438   1
   2  -6  -7 5857.66 301.730   1
   7  -3  -6 1585.82 224.526   1
   3  -6  -7 1748.64 209.781   1
   6  -3  -7 1814.97 243.148   1
   4  -6  -7 1027.65 206.208   1
   6  -4  -7 1103.00 241.178   1
   7  -4  -6 1121.44 224.773   1
   6  -5  -7 1521.31 243.512   1
   7  -6  -5 1235.01 213.173   1
   7  -5  -6 1421.84 232.727   1
   5  -6  -7 1397.80 229.106   1
   6  -6  -7 178.926 205.515   1
   7  -6  -6 388.565 226.825   1
   6  -7  -6 419.954 83.2962   6
   6  -6  -7 301.573 105.272   6
   7  -7   7 295.705 120.272   7
   7  -7   6 9816.96 296.988   7
   7   5  -7-46.7164 214.740   1
   7   4  -7 5426.48 342.625   1
   7   3  -7 244.152 229.688   1
   7   2  -7 2275.87 276.154   1
   7   1  -7-137.902 213.663   1
   7   0  -7-23.0949 229.776   1
   7  -1  -7 93.0890 200.530   1
   7  -2  -7 1113.40 262.228   1
   7  -3  -7 60.3518 228.983   1
   7  -4  -7 4716.90 334.168   1
   5  -7  -7 191.348 98.3779   6
   7  -5  -7 149.187 228.623   1
   7  -6  -7 9269.79 278.665   6
   6  -7  -7 8909.10 278.515   6
   7  -7  -6 9300.09 282.365   6
   7  -6  -7 9627.74 433.837   1
   7  -7  -7 452.393 118.195   6
   0   0  -8 8169.98 371.727   1
  -1  -1  -8 8496.93 385.301   1
   1   1  -8 8330.40 369.141   1
  -1   0  -8 10584.2 421.828   1
   0  -1  -8 10280.4 415.033   1
   0   1  -8 10290.1 415.209   1
   1   0  -8 10569.9 425.225   1
  -1   1  -8 6393.56 342.239   1
   1  -1  -8 7206.49 344.794   1
   2   2  -8 4705.31 287.172   1
   2   1  -8 10358.6 415.607   1
  -1  -2  -8 9482.38 411.002   1
   1   2  -8 10199.5 409.092   1
   0  -2  -8 1365.12 231.137   1
   2   0  -8 1473.54 224.037   1
   0   2  -8 1430.23 218.035   1
  -1   2  -8 11378.2 432.631   1
   2  -1  -8 10667.1 432.235   1
   1  -2  -8 10671.3 431.977   1
   2  -2  -8 6075.84 319.895   1
   3   3  -8 6879.98 346.152   1
   3   2  -8 24362.1 733.769   1
   2   3  -8 24970.1 736.599   1
   3   1  -8 2491.38 250.691   1
  -1  -3  -8 2486.19 254.024   1
   1   3  -8 2302.64 225.221   1
   0  -3  -8 63443.9 1607.67   1
   3   0  -8 63918.9 1603.83   1
   0   3  -8 62230.0 1592.03   1
  -1   3  -8 1671.78 232.357   1
   1  -3  -8 1856.63 230.889   1
   3  -1  -8 1775.41 251.368   1
   2  -3  -8 23924.6 724.997   1
   3  -2  -8 23365.8 720.060   1
   3  -3  -8 4580.23 303.633   1
   4   4  -8 2104.83 229.246   1
   3   4  -8 10658.8 423.038   1
   4   3  -8 10487.3 428.386   1
   2   4  -8 1605.63 215.075   1
   4   2  -8 1500.94 216.176   1
   4   1  -8 13741.3 513.587   1
   1   4  -8 14805.7 501.185   1
   0   4  -8 3408.07 251.580   1
   0  -4  -8 2955.63 249.569   1
   4   0  -8 3408.28 263.821   1
   4  -1  -8 13061.5 497.414   1
   1  -4  -8 13449.8 485.214   1
   4  -2  -8 4046.52 280.574   1
   2  -4  -8 4541.49 293.674   1
   4  -3  -8 11028.9 445.912   1
   3  -4  -8 10960.7 439.726   1
   4  -4  -8 2016.07 237.366   1
   5   5  -8 10361.2 437.546   1
   5   4  -8 16469.3 569.835   1
   4   5  -8 15687.6 550.470   1
   3   5  -8 5757.08 317.983   1
   5   3  -8 6009.46 332.379   1
   2   5  -8 45182.8 1203.17   1
   5   2  -8 46075.5 1228.93   1
   1   5  -8 5369.59 305.465   1
   5   1  -8 6086.83 326.241   1
   0  -5  -8 59940.2 1548.80   1
   0   5  -8 61341.9 1535.24   1
   5   0  -8 59854.0 1560.82   1
   1  -5  -8 4242.78 291.749   1
   5  -1  -8 4068.07 296.536   1
   5  -2  -8 43963.8 1199.44   1
   2  -5  -8 43961.9 1184.36   1
   3  -5  -8 3953.94 290.232   1
   5  -3  -8 4313.21 304.106   1
   5  -4  -8 16198.5 583.651   1
   4  -5  -8 16719.7 575.772   1
   5  -5  -8 10105.5 451.124   1
   8  -6   6 27806.4 670.879   7
  -6  -6  -8 25393.1 652.696   5
   6   5  -8 2283.06 266.307   1
   8   5  -6 2372.01 267.603   1
   8  -5   6 2453.85 151.388   7
   8  -6   5 1784.36 126.275   7
   8   4  -6 8428.82 403.942   1
   6   4  -8 8593.33 414.151   1
   6   3  -8 6022.93 339.255   1
   6   2  -8 9713.53 435.785   1
   6   1  -8 8246.26 412.758   1
   0  -6  -8 20780.7 674.261   1
   6   0  -8 22203.3 703.416   1
   1  -6  -8 8547.05 382.102   1
   6  -1  -8 8550.59 421.253   1
   6  -2  -8 11471.4 480.128   1
   2  -6  -8 11832.4 459.687   1
   3  -6  -8 6439.77 344.394   1
   6  -3  -8 6254.75 357.852   1
   6  -4  -8 8671.95 259.409   6
   8  -4  -6 9234.76 423.844   1
   6  -4  -8 8091.59 421.605   1
   4  -6  -8 8705.84 400.664   1
   5  -6  -8 2879.27 132.034   6
   5  -6  -8 2816.26 279.247   1
   8  -5  -6 2711.57 287.259   1
   6  -5  -8 2939.81 293.704   1
   6  -8  -6 24251.0 610.619   6
   6  -6  -8 24763.9 611.989   6
   8  -6  -6 24002.2 776.405   1
   6  -6  -8 24379.0 782.702   1
   7  -8   7 25030.5 629.280   7
   8  -7   7 24430.1 633.998   7
   7  -7   8 25072.5 632.215   7
  -7  -7  -8 23824.9 618.160   5
   8  -6   7 1695.49 147.507   7
   8  -7   6 1866.05 142.696   7
   7  -8   6 1765.11 143.837   7
   6  -8   7 1695.71 130.113   7
  -7  -6  -8 1594.15 126.227   5
  -6  -7  -8 1639.66 124.271   5
   8   5  -7 4059.92 333.294   1
   7   5  -8 4575.01 338.427   1
   7  -8   5 4435.72 175.327   7
   8  -7   5 4428.18 187.199   7
  -7  -8  -5 3926.11 163.141   2
  -8  -7  -5 4087.65 162.779   2
  -7  -5  -8 4318.62 182.100   5
  -5  -7  -8 4500.15 170.157   5
   7   4  -8 7972.81 418.047   1
   8   4  -7 8597.70 420.188   1
   8  -7   4 8290.05 259.121   7
  -7  -8  -4 8024.84 238.475   2
  -8  -7  -4 7604.42 238.276   2
  -7  -4  -8 7622.79 251.325   5
   8   3  -7 2528.26 295.232   1
   7   3  -8 2183.78 270.836   1
  -7  -8  -3 1931.68 122.832   2
  -7  -3  -8 1891.70 126.272   5
   7   2  -8 9635.41 450.261   1
   8   2  -7 9917.97 461.497   1
   8   1  -7 1326.69 273.750   1
   7   1  -8 1443.07 284.662   1
   8   0  -7 16864.9 632.921   1
   7   0  -8 18143.3 639.271   1
   8  -1  -7 1050.84 265.657   1
   7  -1  -8 1488.03 286.049   1
   7  -2  -8 9546.80 459.119   1
   8  -2  -7 10506.9 478.320   1
  -8  -7   3 1551.55 104.832   2
  -7  -8   3 1621.10 111.941   2
   8  -3  -7 1640.65 284.770   1
   7  -3  -8 1610.38 268.958   1
   7  -3  -8 1550.36 105.572   6
   3  -7  -8 1781.13 122.954   6
  -8  -7   4 8389.39 246.113   2
  -7  -8   4 7904.51 239.416   2
   8  -4  -7 8521.52 432.083   1
   7  -4  -8 8542.85 444.180   1
   4  -7  -8 8468.32 257.801   6
   4  -8  -7 8130.00 247.506   6
   7  -4  -8 8423.71 255.529   6
  -7  -8   5 4686.61 172.082   2
  -8  -7   5 4895.28 174.782   2
   8  -5  -7 5376.50 374.950   1
   7  -5  -8 4812.86 353.987   1
   7  -5  -8 5031.32 199.367   6
   8  -5  -7 5477.66 198.876   6
   5  -8  -7 4796.55 190.907   6
   5  -7  -8 5149.20 186.213   6
  -8  -7   6 1790.03 116.277   2
  -7  -8   6 1682.34 107.011   2
   7  -6  -8 2082.06 286.241   1
   8  -6  -7 1579.87 268.330   1
   7  -8  -6 1451.34 144.449   6
   6  -8  -7 1541.47 141.652   6
   6  -7  -8 1863.49 135.453   6
   7  -7  -8 27892.4 681.792   6
   8  -7  -7 26925.5 680.063   6
   7  -8  -7 25989.9 675.329   6
   8  -8   8 62803.9 1491.74   7
   8  -8   7 2129.24 162.145   7
   8  -7   8 2359.82 160.652   7
   6  -8   8 35670.7 876.375   7
   8  -6   8 37338.6 891.857   7
   8  -8   6 34870.4 879.543   7
   8  -8   5 421.325 123.964   7
  -8  -8  -5 472.060 109.703   2
   8   5  -8 568.690 256.185   1
   8  -8   4 2921.80 153.840   7
   8   4  -8 2933.38 301.320   1
  -8  -8  -4 2869.50 146.949   2
   8  -8   3 144.873 111.336   7
  -8  -8  -3 229.708 96.6389   2
   8   3  -8 70.2814 271.916   1
   8  -8   2 4875.94 187.867   7
   8   2  -8 5186.18 386.696   1
  -8  -8  -2 4745.48 171.682   2
   8  -8   1 228.894 107.268   7
   8   1  -8 469.165 238.832   1
  -8  -8  -1 499.016 107.573   2
   8   0  -8 10142.1 494.820   1
  -8  -8   0 10037.3 282.339   2
   8  -1  -8 248.251 102.251   6
  -8  -8   1 311.165 87.2015   2
   8  -1  -8 201.453 253.243   1
   8  -2  -8 4697.13 177.570   6
   8  -2  -8 4473.06 377.135   1
  -8  -8   2 5366.20 187.877   2
   8  -3  -8 144.767 102.054   6
  -8  -8   3 146.593 104.045   2
   3  -8  -8 265.157 96.3110   6
   4  -8  -8 3148.05 148.393   6
   8  -4  -8 3379.55 156.271   6
   8  -4  -8 2945.38 313.789   1
  -8  -8   4 3322.24 152.600   2
   8  -5  -8 514.525 131.845   6
   5  -8  -8 602.794 126.639   6
   8  -5  -8 648.024 278.338   1
  -8  -8   5 471.776 104.377   2
   8  -8  -6 30635.5 769.759   6
   6  -8  -8 31581.9 768.945   6
   8  -6  -8 29337.8 960.614   1
  -8  -8   6 31004.9 750.858   2
   7  -8  -8 3315.23 174.067   6
   8  -7  -8 3018.29 184.482   6
   8  -8  -8 53790.7 1288.42   6
   0   0  -9-54.2733 212.534   1
   1   1  -9 248.182 211.557   1
  -1  -1  -9 158.167 242.716   1
   0  -1  -9 12558.8 497.014   1
   0   1  -9 12590.4 494.064   1
  -1   0  -9 13396.0 512.085   1
   1   0  -9 13472.1 516.079   1
  -1   1  -9 222.080 229.277   1
   1  -1  -9 219.564 219.428   1
   2   2  -9 130.985 221.096   1
  -1  -2  -9 2284.38 270.103   1
   2   1  -9 2447.12 262.793   1
   1   2  -9 2590.59 269.053   1
   0  -2  -9 10320.6 447.854   1
   0   2  -9 9777.47 428.229   1
   2   0  -9 10250.0 442.015   1
   2  -1  -9 2577.75 262.415   1
  -1   2  -9 2440.20 271.274   1
   1  -2  -9 2704.61 283.208   1
   2  -2  -9 11.2895 231.210   1
   3   3  -9 362.211 224.938   1
   3   2  -9 1388.55 248.199   1
   2   3  -9 1480.13 231.080   1
   1   3  -9 6310.44 342.968   1
  -1  -3  -9 5731.23 354.711   1
   3   1  -9 6174.35 352.322   1
   0   3  -9 5895.22 331.495   1
   3   0  -9 5783.45 353.868   1
   0  -3  -9 5701.42 329.192   1
   3  -1  -9 5406.93 344.381   1
  -1   3  -9 5435.74 336.203   1
   1  -3  -9 5330.84 338.205   1
   2  -3  -9 1705.09 256.341   1
   3  -2  -9 1694.56 259.398   1
   3  -3  -9 149.825 232.730   1
   4   4  -9 34.2541 218.616   1
   3   4  -9 3370.76 276.296   1
   4   3  -9 3440.55 298.473   1
   2   4  -9 632.385 225.581   1
   4   2  -9 352.513 243.847   1
   1   4  -9 2333.71 256.269   1
   4   1  -9 2231.52 259.650   1
   0  -4  -9 484.115 236.456   1
   0   4  -9 452.571 206.018   1
   4   0  -9 194.756 234.313   1
   1  -4  -9 1437.78 246.724   1
   4  -1  -9 1145.06 240.731   1
   4  -2  -9 563.269 253.192   1
   2  -4  -9 384.450 240.486   1
   3  -4  -9 3536.32 299.977   1
   4  -3  -9 3295.57 307.371   1
   4  -4  -9-85.0571 229.979   1
  -5  -5  -9 405.285 112.510   5
   5   5  -9 132.842 211.680   1
   9  -5   5 162.184 95.4937   7
  -5  -4  -9 2205.20 136.942   5
   5   4  -9 1909.76 254.513   1
   4   5  -9 2339.38 261.973   1
   9  -5   4 2129.31 139.449   7
   5   3  -9 3618.72 317.163   1
   3   5  -9 4018.53 297.767   1
   5   2  -9 11012.2 477.432   1
   2   5  -9 10172.6 437.859   1
   1   5  -9 10237.7 429.212   1
   5   1  -9 9821.83 455.665   1
   5   0  -9 2664.75 310.714   1
   0   5  -9 2132.91 245.694   1
   0  -5  -9 2895.50 288.190   1
   5  -1  -9 10388.0 468.264   1
   1  -5  -9 10124.0 449.650   1
   5  -2  -9 10924.9 491.200   1
   2  -5  -9 11655.2 485.973   1
   5  -3  -9 3206.26 319.906   1
   3  -5  -9 3571.85 300.318   1
   5  -4  -9 3288.67 295.981   1
   4  -5  -9 3331.79 305.642   1
   5  -4  -9 3102.24 150.381   6
   5  -5  -9 78.0036 215.656   1
   9  -6   6 524.889 128.761   7
  -6  -6  -9 394.356 122.578   5
   9  -6   5 3713.53 172.401   7
   9  -5   6 3851.49 185.492   7
  -6  -5  -9 3842.87 165.654   5
  -5  -6  -9 3931.22 172.997   5
  -9  -6  -5 4047.81 160.518   2
  -6  -9  -5 4022.20 155.080   2
   9   5  -6 4753.73 337.682   1
   6   5  -9 4527.00 330.166   1
   6   4  -9 1520.15 272.367   1
  -6  -4  -9 1379.41 114.400   5
  -4  -6  -9 1304.43 110.350   5
   9  -4   6 1455.62 119.435   7
   9  -6   4 1607.10 137.138   7
  -9  -6  -4 1283.80 114.335   2
  -6  -9  -4 1335.75 99.4036   2
   9  -6   3 628.889 117.608   7
   9  -3   6 665.455 131.330   7
   6   3  -9 975.103 238.963   1
  -9  -6  -3 596.849 91.8619   2
  -6  -9  -3 558.533 108.409   2
  -6  -3  -9 767.000 120.794   5
   9  -6   2 2091.40 142.890   7
   6   2  -9 2695.99 295.671   1
  -9  -6  -2 2471.98 131.681   2
  -6  -9  -2 2617.51 134.188   2
   6   1  -9 3565.98 319.440   1
  -9  -6  -1 3133.80 132.504   2
  -6  -9  -1 3223.18 148.388   2
  -6  -1  -9 3230.66 155.690   5
  -9  -6   0 736.435 103.446   2
   0  -6  -9 904.793 237.883   1
  -6  -9   0 621.163 98.1958   2
   6   0  -9 464.388 222.394   1
  -6   0  -9 426.658 106.118   5
   6  -1  -9 2433.04 296.906   1
   1  -6  -9 2178.41 260.880   1
  -6  -9   1 2268.11 127.160   2
  -9  -6   1 2502.07 129.171   2
   2  -6  -9 1882.99 255.511   1
   6  -2  -9 1981.16 273.857   1
  -6  -9   2 1905.83 120.941   2
  -9  -6   2 2087.91 119.960   2
   6  -3  -9 292.832 103.761   6
  -6  -9   3 333.568 100.173   2
   6  -3  -9 615.795 249.304   1
   3  -6  -9 111.660 226.840   1
  -9  -6   3 425.533 80.4292   2
   6  -4  -9 1515.35 129.682   6
   4  -6  -9 1469.43 123.908   6
   4  -6  -9 1186.95 260.752   1
  -9  -6   4 1232.17 112.514   2
   6  -4  -9 1158.51 280.185   1
  -6  -9   4 1286.04 100.130   2
   5  -6  -9 5518.94 204.323   6
   5  -9  -6 5094.61 190.078   6
   6  -9  -5 5057.41 194.032   6
   6  -5  -9 5223.28 195.448   6
   9  -5  -6 4811.42 357.009   1
   5  -6  -9 5355.43 359.644   1
   6  -5  -9 6072.47 379.016   1
  -6  -9   5 5342.18 186.461   2
  -5  -9   6 5448.86 180.079   2
  -9  -6   5 4966.17 175.516   2
  -9  -5   6 4920.64 174.282   2
   6  -9  -6 405.612 102.785   6
  -9  -6   6 384.067 95.5851   2
   6  -6  -9-84.1351 276.167   1
   9  -6  -6 356.709 235.217   1
  -6  -9   6 344.616 93.3698   2
  -7  -7  -9 237.757 132.437   5
   9  -7   7 208.134 143.453   7
   9  -6   7 2986.88 169.830   7
   9  -7   6 2721.09 163.376   7
   7  -9   6 3300.21 159.358   7
  -6  -7  -9 2909.78 155.204   5
  -7  -6  -9 3172.40 171.903   5
   9  -7   5 238.995 122.089   7
   9  -5   7 199.265 109.134   7
   7  -9   5 311.430 115.107   7
   7   5  -9 416.149 241.133   1
  -9  -7  -5 247.679 104.911   2
   9   5  -7 99.4612 246.646   1
  -7  -9  -5 266.528 90.0945   2
  -5  -7  -9 301.016 117.761   5
  -7  -5  -9 305.976 126.365   5
   9  -4   7 91.2489 125.881   7
   9  -7   4 129.892 118.642   7
   7  -9   4 236.273 109.926   7
   7   4  -9 523.971 262.214   1
  -7  -9  -4 141.342 83.3039   2
   9   4  -7 251.330 225.197   1
  -9  -7  -4 141.736 101.762   2
  -4  -7  -9 140.614 105.758   5
  -7  -4  -9 278.343 126.703   5
   9  -7   3 552.180 119.535   7
   7   3  -9 755.870 247.304   1
   9   3  -7 636.949 277.562   1
  -7  -9  -3 672.761 117.598   2
  -9  -7  -3 574.496 106.376   2
  -7  -3  -9 527.213 105.058   5
  -3  -7  -9 491.523 97.3675   5
   7   2  -9 2772.38 302.953   1
   9   2  -7 2492.02 318.809   1
   9  -7   2 2375.03 143.463   7
  -9  -7  -2 2598.67 132.369   2
  -7  -9  -2 2691.63 144.744   2
  -2  -7  -9 2679.19 135.005   5
   7   1  -9 1872.54 307.487   1
   9   1  -7 1751.99 268.598   1
   9  -7   1 1494.37 129.877   7
  -7  -9  -1 1830.34 129.054   2
  -9  -7  -1 1839.12 127.733   2
  -1  -7  -9 1641.22 125.817   5
  -7  -1  -9 1596.51 118.905   5
   7   0  -9 2189.31 301.156   1
   9   0  -7 2202.45 291.870   1
  -7  -9   0 2701.33 141.490   2
  -9  -7   0 2414.13 127.015   2
   7  -1  -9 1686.45 120.908   6
   7  -1  -9 1729.05 314.480   1
   9  -1  -7 1519.61 267.466   1
  -9  -7   1 1841.96 119.402   2
  -7  -9   1 1897.23 131.213   2
   7  -2  -9 2920.81 149.826   6
   7  -2  -9 2606.55 297.093   1
   9  -2  -7 2559.22 315.907   1
  -7  -9   2 2800.24 137.867   2
  -9  -7   2 2770.86 144.504   2
   7  -3  -9 742.444 95.0027   6
   7  -3  -9 901.100 258.073   1
  -7  -9   3 913.037 113.473   2
   9  -3  -7 1186.29 292.740   1
  -9  -7   3 882.877 113.989   2
   3  -9  -7 833.552 96.3253   6
   7  -4  -9 247.388 92.0501   6
   4  -9  -7 388.118 104.008   6
   7  -4  -9 581.602 277.551   1
  -7  -9   4 386.447 91.6344   2
   9  -4  -7 393.293 231.220   1
  -9  -7   4 418.667 106.109   2
   4  -7  -9 350.692 122.140   6
   7  -5  -9 414.884 263.238   1
  -7  -9   5 347.286 108.914   2
   9  -5  -7 464.428 261.515   1
  -9  -7   5 336.890 106.220   2
   7  -5  -9 319.060 128.690   6
   5  -7  -9 254.084 118.185   6
   5  -9  -7 128.111 108.898   6
   7  -9  -5 352.915 115.816   6
  -9  -7   6 3601.47 161.866   2
  -7  -9   6 3998.59 165.934   2
   7  -6  -9 3879.58 351.078   1
   9  -6  -7 3769.92 347.027   1
   6  -7  -9 3896.03 191.592   6
   6  -9  -7 3828.61 182.787   6
   7  -9  -6 3995.77 187.480   6
   7  -7  -9 285.932 115.495   6
   7  -9  -7 130.773 124.962   6
   9  -7  -7 100.935 133.859   6
   8  -9   8 1829.71 174.530   7
   8  -8   9 1741.25 175.817   7
   9  -8   7 16168.5 462.014   7
   8  -9   7 16025.1 453.374   7
   9  -7   8 16596.7 462.588   7
   8  -7   9 16581.1 461.298   7
   7  -8   9 16023.2 456.347   7
   9  -8   6 1648.45 166.348   7
   8  -9   6 1695.84 141.097   7
   9  -6   8 1431.52 162.594   7
  -6  -8  -9 1544.73 142.525   5
  -5  -8  -9 6109.18 223.535   5
   9  -5   8 6105.10 244.726   7
   9  -8   5 6263.12 241.372   7
   8  -9   5 6095.78 230.830   7
  -9  -8  -5 6166.33 217.610   2
  -8  -9  -5 5904.53 219.090   2
   8  -9   4 192.283 106.228   7
   9  -8   4 227.600 113.105   7
   8   4  -9 299.135 263.544   1
  -9  -8  -4 147.646 111.247   2
  -8  -9  -4 151.936 121.182   2
   9   4  -8-15.5335 244.404   1
  -4  -8  -9 339.263 105.173   5
   8   3  -9 1282.39 323.215   1
  -9  -8  -3 1019.28 129.108   2
   9   3  -8 949.920 305.547   1
   9  -8   3 1187.44 120.456   7
   8  -9   3 925.485 110.957   7
  -8  -9  -3 1184.47 109.861   2
  -3  -8  -9 1137.42 117.487   5
   9  -8   2 829.707 119.876   7
   8  -9   2 844.867 123.038   7
  -8  -9  -2 849.391 99.5392   2
   8   2  -9 920.705 307.334   1
  -9  -8  -2 1060.07 122.803   2
   9   2  -8 1143.48 293.529   1
  -2  -8  -9 1057.02 121.788   5
   9  -8   1 116.657 120.128   7
  -8  -9  -1 114.826 113.189   2
  -9  -8  -1 52.7462 115.464   2
   9   1  -8 153.931 277.361   1
   8   1  -9-152.227 236.623   1
  -1  -8  -9 186.941 103.542   5
   8   0  -9 72.5354 92.0890   6
   9   0  -8 159.969 97.9239   6
  -8  -9   0 67.3120 86.6833   2
  -9  -8   0 157.388 110.479   2
   9   0  -8 15.4611 246.099   1
   8   0  -9 290.680 270.995   1
   0  -8  -9 96.1775 104.633   5
   8  -1  -9 230.896 90.3487   6
   9  -1  -8 475.494 106.691   6
  -8  -9   1 312.122 96.6870   2
  -9  -8   1 255.795 115.609   2
   9  -1  -8 186.782 284.492   1
   8  -1  -9 292.864 256.162   1
   9  -2  -8 564.121 116.521   6
   8  -2  -9 494.923 110.070   6
   8  -2  -9 433.289 308.199   1
  -8  -9   2 632.624 122.015   2
   9  -2  -8 932.187 299.665   1
  -9  -8   2 639.453 116.385   2
   9  -3  -8 1248.63 128.508   6
   8  -3  -9 1320.35 125.769   6
   8  -3  -9 1597.40 320.956   1
   9  -3  -8 1819.33 328.890   1
  -9  -8   3 1505.08 133.150   2
  -8  -9   3 1396.23 130.319   2
   9  -4  -8 270.818 134.068   6
   8  -4  -9 167.007 105.555   6
   8  -4  -9 361.500 275.066   1
  -9  -8   4 154.877 109.606   2
  -8  -9   4 225.517 119.214   2
   9  -4  -8 194.866 258.509   1
   4  -8  -9 189.085 121.412   6
   4  -9  -8 262.524 118.727   6
  -9  -8   5 6439.56 228.196   2
  -8  -9   5 6500.48 220.239   2
   8  -5  -9 7142.52 251.836   6
   5  -8  -9 7007.24 248.313   6
   5  -9  -8 6784.58 237.519   6
   9  -5  -8 6993.51 241.412   6
  -8  -9   6 1080.15 111.459   2
  -9  -8   6 1335.59 130.757   2
   6  -8  -9 1128.23 153.142   6
   6  -9  -8 1391.89 149.914   6
   8  -9  -6 1463.78 154.445   6
   9  -8  -7 19545.3 515.140   6
   7  -8  -9 18930.0 508.192   6
   8  -9  -7 17805.4 501.370   6
   8  -7  -9 18569.3 504.163   6
   9  -7  -8 18401.2 510.723   6
   7  -9  -8 18245.4 501.443   6
   8  -9  -8 2097.08 163.351   6
   9  -8  -8 2480.48 194.719   6
   9  -9   9 283.577 166.714   7
   8  -9   9 11845.6 369.571   7
   9  -8   9 11620.1 376.311   7
   9  -9   8 11105.5 366.903   7
   9  -7   9 218.319 144.203   7
   9  -9   7 259.434 156.092   7
   9  -6   9 2537.40 179.656   7
   9  -9   6 2571.36 174.741   7
   9  -9   5 223.577 132.193   7
  -9  -9  -5 152.500 128.462   2
   9  -9   4 5787.13 235.277   7
  -9  -9  -4 6226.56 229.204   2
   9  -9   3 400.577 131.989   7
  -9  -9  -3 304.803 116.691   2
   9  -9   2 1868.20 153.262   7
  -9  -9  -2 2130.31 141.003   2
  -9  -9  -1 15.9411 129.311   2
  -9  -9   0 691.258 121.724   2
   0  -9  -9 452.170 112.903   5
   9  -1  -9-38.7860 101.220   6
  -9  -9   1 164.387 120.433   2
   9  -2  -9 2197.17 159.023   6
  -9  -9   2 2660.16 161.736   2
   9  -3  -9 178.901 124.416   6
  -9  -9   3 363.852 128.499   2
   9  -4  -9 5946.97 240.238   6
  -9  -9   4 6516.11 229.754   2
   9  -5  -9 308.858 147.733   6
  -9  -9   5 124.089 107.669   2
   5  -9  -9 183.680 115.334   6
   6  -9  -9 3580.23 190.393   6
   9  -6  -9 3581.70 211.091   6
   9  -9  -6 3322.52 195.382   6
  -9  -9   6 3329.04 161.164   2
   7  -9  -9 125.116 144.483   6
   9  -9  -7 172.221 159.973   6
   9  -8  -9 13575.2 410.267   6
   8  -9  -9 13539.0 404.200   6
   9  -9  -8 13180.3 415.387   6
   9  -9  -9 467.287 186.638   6
   0   0 -10 36860.3 1060.87   1
   1   1 -10 8651.81 437.245   1
  -1  -1 -10 7748.71 409.933   1
   1   0 -10 15360.3 591.736   1
   0  -1 -10 14157.7 571.485   1
   0   1 -10 15705.1 579.025   1
  -1   0 -10 16470.5 600.735   1
   1  -1 -10 8739.22 442.843   1
  -1   1 -10 7219.95 401.896   1
   2   2 -10 7974.87 408.417   1
   1   2 -10 16216.2 598.740   1
  -1  -2 -10 15744.5 608.611   1
   2   1 -10 16067.8 601.138   1
   0  -2 -10 1462.56 275.778   1
   0   2 -10 1511.16 268.919   1
   2   0 -10 1576.14 252.404   1
   1  -2 -10 15952.4 605.568   1
  -1   2 -10 16393.5 608.268   1
   2  -1 -10 16456.5 614.311   1
   2  -2 -10 10210.2 468.042   1
  10  -3   3 37475.0 915.115   7
   3   3 -10 38612.6 1089.27   1
   3   2 -10 8944.85 431.110   1
   2   3 -10 8544.78 424.880   1
   3   1 -10 5352.77 368.157   1
   1   3 -10 6045.68 373.453   1
   0  -3 -10 56736.9 1546.16   1
   0   3 -10 59191.5 1543.37   1
   3   0 -10 58696.0 1551.14   1
   1  -3 -10 5390.26 378.371   1
   3  -1 -10 5402.92 372.636   1
   3  -2 -10 9124.96 448.221   1
   2  -3 -10 9823.94 454.742   1
   3  -3 -10 35289.9 1043.03   1
  -4  -4 -10 20027.0 501.534   5
 -10  -4  -4 19348.1 491.615   2
  -4 -10  -4 19044.2 491.014   2
   4   4 -10 18526.0 670.130   1
   4   3 -10 4481.96 356.859   1
   3   4 -10 4182.30 344.006   1
  -4  -3 -10 4277.01 173.561   5
  -3  -4 -10 3845.97 170.721   5
  10  -3   4 4068.62 181.478   7
  10  -4   3 3945.61 185.269   7
 -10  -4  -3 4212.65 161.171   2
  -4 -10  -3 4130.27 164.750   2
   4   2 -10 14177.4 561.851   1
   2   4 -10 13594.3 543.677   1
  -4  -2 -10 13274.8 360.480   5
  -2  -4 -10 14083.9 370.137   5
  10  -2   4 13452.9 379.153   7
  10  -4   2 13214.2 376.398   7
  -4 -10  -2 13356.3 357.053   2
 -10  -4  -2 13203.8 361.548   2
   1   4 -10 22770.7 746.022   1
   4   1 -10 22886.4 754.525   1
  10  -4   1 23364.7 583.404   7
 -10  -4  -1 22584.8 564.230   2
  -4 -10  -1 22923.5 567.432   2
  -4  -1 -10 22653.6 569.957   5
  -1  -4 -10 22827.5 571.282   5
  -4 -10   0 13670.3 347.263   2
 -10  -4   0 12221.1 350.453   2
   0  -4 -10 12362.7 539.334   1
   0   4 -10 10513.4 505.935   1
   4   0 -10 11817.0 530.024   1
  10  -4   0 14433.6 368.975   7
   1  -4 -10 21029.6 723.814   1
   4  -1 -10 21748.3 728.553   1
 -10  -4   1 21476.9 533.488   2
  -4 -10   1 21048.1 527.761   2
   4  -2 -10 14379.5 587.830   1
   2  -4 -10 15205.6 590.357   1
 -10  -4   2 14780.4 390.111   2
  -4 -10   2 14861.5 389.925   2
   4  -3 -10 6101.62 404.660   1
   3  -4 -10 5975.91 387.578   1
  -4 -10   3 5743.45 196.050   2
 -10  -4   3 5378.88 188.891   2
   4  -4 -10 16659.1 639.895   1
  -4 -10   4 17388.3 448.557   2
 -10  -4   4 17773.5 451.227   2
  10  -5   5 4343.13 197.388   7
   5   5 -10 4592.95 336.075   1
  -5 -10  -5 4123.33 169.450   2
 -10  -5  -5 4129.55 159.218   2
  -5  -5 -10 4227.29 183.237   5
   4   5 -10 2817.10 289.919   1
   5   4 -10 2173.33 288.761   1
  -4  -5 -10 2420.63 144.609   5
  -5  -4 -10 2337.52 148.789   5
  10  -5   4 2533.39 159.886   7
 -10  -5  -4 2457.64 122.916   2
  -5 -10  -4 2457.60 134.552   2
 -10  -4  -5 2589.98 133.560   2
   5   3 -10 18162.0 665.912   1
   3   5 -10 18854.5 658.958   1
  -3  -5 -10 18278.5 476.278   5
  -5  -3 -10 18611.1 479.420   5
  10  -3   5 18454.8 491.832   7
  10  -5   3 17464.8 486.923   7
 -10  -5  -3 18547.0 469.427   2
  -5 -10  -3 17738.9 468.577   2
  10  -2   5 10142.1 316.940   7
  -2  -5 -10 10258.8 300.620   5
   2   5 -10 11061.4 477.450   1
   5   2 -10 10186.6 486.234   1
  -5 -10  -2 10424.2 295.677   2
 -10  -5  -2 10315.6 297.422   2
  10  -1   5 8509.85 280.048   7
  -5  -1 -10 9151.78 275.288   5
  -1  -5 -10 8757.88 273.876   5
   1   5 -10 9390.30 435.279   1
   5   1 -10 8912.75 452.057   1
  -5 -10  -1 9413.90 271.587   2
 -10  -5  -1 9221.23 270.546   2
  10   0   5 35212.9 891.944   7
   0   5 -10 37242.3 1061.90   1
   0  -5 -10 34712.6 1067.59   1
   5   0 -10 35582.7 1075.82   1
  -5 -10   0 36483.3 876.682   2
 -10  -5   0 38292.0 879.585   2
  -5   0 -10 37276.5 883.047   5
   1  -5 -10 10118.8 478.249   1
   5  -1 -10 9545.12 476.189   1
   5  -1 -10 10524.7 295.080   6
 -10  -5   1 10233.5 296.514   2
  -5 -10   1 10367.2 293.603   2
  -5   1 -10 10403.2 300.689   5
   2  -5 -10 9834.54 469.517   1
   5  -2 -10 9927.80 482.514   1
   5  -2 -10 9462.42 278.595   6
  -5 -10   2 9062.65 277.753   2
 -10  -5   2 9591.91 276.210   2
  -5   2 -10 9990.85 277.533   5
   5  -3 -10 18776.3 689.480   1
   3  -5 -10 19154.4 681.340   1
   5  -3 -10 19139.5 483.098   6
 -10  -5   3 18202.9 474.576   2
 -10  -3   5 18585.6 471.971   2
  -5 -10   3 19066.1 476.352   2
  -5   3 -10 17725.2 470.859   5
 -10  -4   5 1338.83 106.328   2
  -5 -10   4 1007.06 112.078   2
 -10  -5   4 1271.65 97.6427   2
  -4 -10   5 1254.66 113.012   2
   4  -5 -10 1357.41 278.673   1
   5  -4 -10 1528.82 271.159   1
   5  -4 -10 1196.10 113.827   6
  -5 -10   5 5092.10 187.558   2
 -10  -5   5 5205.68 186.740   2
   5  -5 -10 5042.61 194.680   6
   5 -10  -5 5136.42 194.272   6
   5  -5 -10 5578.23 381.746   1
  10  -6   6 8693.99 290.781   7
  -6  -6 -10 8196.19 274.229   5
   6   5 -10 1151.38 294.609   1
  10  -5   6 1332.93 142.678   7
  10  -6   5 1608.90 146.924   7
 -10  -6  -5 1467.37 125.253   2
  -6 -10  -5 1663.19 130.553   2
  -5  -6 -10 1397.63 145.438   5
  -6  -5 -10 1621.63 154.005   5
   6   4 -10 1260.93 282.457   1
 -10  -6  -4 1028.36 120.431   2
  10  -6   4 1049.61 143.272   7
  -6 -10  -4 1122.42 128.482   2
  -4  -6 -10 1027.64 124.828   5
  -6  -4 -10 992.907 141.707   5
   6   3 -10 1459.58 302.030   1
  -6  -3 -10 1084.69 116.097   5
  -3  -6 -10 1149.66 127.081   5
  10  -6   3 1182.00 128.091   7
  10  -3   6 1356.77 149.307   7
 -10  -6  -3 1137.60 112.547   2
  -6 -10  -3 1208.61 112.573   2
   6   2 -10 2987.83 344.207   1
  -2  -6 -10 3187.63 159.635   5
  10  -2   6 2849.55 173.627   7
  10  -6   2 2964.63 165.676   7
 -10  -6  -2 2644.23 146.640   2
  -6 -10  -2 2935.58 147.282   2
   6   1 -10 6599.33 408.443   1
  -6  -1 -10 5686.03 204.413   5
  -1  -6 -10 6079.46 208.587   5
  10  -1   6 6276.44 233.472   7
  10  -6   1 5972.47 221.980   7
  -6 -10  -1 5814.96 202.997   2
 -10  -6  -1 6069.41 200.601   2
   6   0 -10 1144.96 303.839   1
 -10  -6   0 1182.67 117.100   2
  10  -6   0 1417.60 139.974   7
  -6 -10   0 1243.81 120.543   2
  -6   0 -10 976.476 128.932   5
   6   0 -10 1116.83 105.143   6
   1  -6 -10 7079.37 396.768   1
   6  -1 -10 7075.49 422.409   1
   6  -1 -10 6710.45 215.137   6
 -10  -6   1 6253.86 215.258   2
  -6 -10   1 6800.42 218.414   2
  -6   1 -10 6685.80 228.410   5
   6  -2 -10 2974.68 136.699   6
   2  -6 -10 3303.96 304.034   1
   6  -2 -10 3001.34 347.532   1
  -6 -10   2 2999.64 154.341   2
 -10  -6   2 2988.18 152.502   2
   6  -3 -10 2036.10 141.740   6
   6  -3 -10 2465.05 334.711   1
   3  -6 -10 2204.46 281.622   1
 -10  -3   6 1740.68 114.860   2
 -10  -6   3 1797.01 121.934   2
  -6 -10   3 1850.50 124.289   2
   4 -10  -6 250.194 102.889   6
   6 -10  -4 260.880 102.612   6
   6  -4 -10 449.521 108.755   6
   4  -6 -10 454.575 269.743   1
 -10  -6   4 357.488 110.242   2
 -10  -4   6 386.697 97.7270   2
  -6 -10   4 479.743 113.796   2
   6 -10  -5 1571.96 135.117   6
   6  -5 -10 1563.87 142.827   6
   5 -10  -6 1584.72 133.105   6
   5  -6 -10 1596.15 298.595   1
   6  -5 -10 2131.86 327.393   1
 -10  -5   6 1551.89 115.315   2
  -5 -10   6 1708.84 122.955   2
 -10  -6   5 1560.36 110.348   2
  -6 -10   5 1597.44 111.538   2
   6 -10  -6 10690.3 324.246   6
  10  -6  -6 10672.9 516.055   1
   6  -6 -10 12061.6 545.176   1
  -6 -10   6 10868.2 306.716   2
 -10  -6   6 10784.6 305.265   2
  10  -7   7 13822.8 410.104   7
  -7  -7 -10 13135.6 394.155   5
  10  -7   6 1194.62 157.161   7
  10  -6   7 1052.83 161.122   7
  -6  -7 -10 1047.74 149.666   5
  -7  -6 -10 1109.45 135.976   5
  -7  -5 -10 2108.50 163.335   5
  -5  -7 -10 2230.49 158.229   5
  10  -5   7 2075.69 181.237   7
  10  -7   5 2058.01 167.334   7
  -7 -10  -5 2114.20 149.193   2
 -10  -7  -5 2040.96 145.147   2
 -10  -7  -4 1525.41 137.140   2
  -7  -4 -10 1423.83 144.962   5
  -4  -7 -10 1362.81 125.398   5
  10  -7   4 1299.57 140.912   7
  -7 -10  -4 1510.61 141.000   2
  -3  -7 -10 2819.10 162.466   5
  -7  -3 -10 3108.67 166.434   5
  10  -3   7 2986.87 186.364   7
  10  -7   3 2686.87 167.601   7
  -7 -10  -3 2528.69 139.562   2
 -10  -7  -3 2959.24 140.792   2
  10  -7   2 677.109 127.407   7
  -7 -10  -2 1032.64 105.425   2
  10   2  -7 1145.55 316.551   1
 -10  -7  -2 907.334 103.082   2
   7   2 -10 1152.74 310.339   1
  -2  -7 -10 794.708 118.426   5
   7   1 -10 1153.86 272.141   1
  10  -7   1 1404.85 135.536   7
 -10  -7  -1 1605.99 132.532   2
  -7 -10  -1 1456.49 135.235   2
  -7  -1 -10 1287.12 128.161   5
  -1  -7 -10 1363.00 123.993   5
   7   0 -10 3697.39 359.591   1
   7   0 -10 4102.38 162.220   6
  -7 -10   0 3926.24 162.828   2
 -10  -7   0 4006.41 160.897   2
   0  -7 -10 4314.54 179.904   5
   7  -1 -10 1812.95 134.253   6
 -10  -7   1 1948.59 124.839   2
  -7 -10   1 1880.86 122.174   2
   7  -2 -10 379.893 116.545   6
  -7 -10   2 301.699 125.479   2
   7  -2 -10 363.274 304.570   1
  10  -2  -7 218.108 297.011   1
 -10  -7   2 332.217 121.970   2
   3 -10  -7 2843.34 141.407   6
   7  -3 -10 2809.19 157.634   6
  10  -3  -7 2799.77 360.171   1
   7  -3 -10 2735.47 364.935   1
 -10  -7   3 2966.30 157.532   2
  -7 -10   3 2966.82 157.290   2
   4 -10  -7 848.335 111.056   6
   7  -4 -10 1066.84 142.312   6
 -10  -7   4 1014.01 130.188   2
  -7 -10   4 899.058 128.361   2
   7  -5 -10 1233.40 140.105   6
   5 -10  -7 963.200 131.693   6
   7 -10  -5 1020.75 117.943   6
  -7 -10   5 1056.17 108.310   2
 -10  -7   5 1083.58 109.351   2
   5  -7 -10 1026.10 141.394   6
  -7 -10   6 931.815 109.422   2
 -10  -7   6 800.285 105.032   2
   6  -7 -10 849.858 156.812   6
   6 -10  -7 585.200 140.966   6
   7 -10  -6 699.801 122.460   6
  10  -7  -7 10862.6 348.099   6
   7 -10  -7 10896.3 333.550   6
   7  -7 -10 10967.9 343.906   6
   8  -8  10 23252.2 635.666   7
  10  -8   8 24565.8 646.079   7
  -7  -8 -10 1000.51 159.236   5
   8  -7  10 1108.15 176.376   7
   7  -8  10 1287.52 160.969   7
  10  -8   7 921.859 177.818   7
  10  -7   8 1246.01 158.178   7
  10  -6   8 14032.1 418.774   7
  10  -8   6 14342.4 416.382   7
  -6  -8 -10 13988.5 408.228   5
 -10  -8  -5 637.153 122.959   2
  10  -8   5 888.971 142.841   7
  10  -5   8 1087.26 165.392   7
  -8 -10  -5 966.052 133.725   2
  -5  -8 -10 876.416 144.962   5
 -10  -8  -4 581.685 135.122   2
  10  -8   4 690.116 139.847   7
  10  -4   8 720.696 156.121   7
  -8 -10  -4 585.458 111.144   2
  -4  -8 -10 467.050 114.930   5
   8 -10   3 21.7032 102.867   7
  10  -8   3-28.6118 132.625   7
  -8 -10  -3-26.3286 129.793   2
 -10  -8  -3 169.320 101.622   2
  -3  -8 -10 3.42711 120.636   5
  10  -8   2 1948.42 161.222   7
  -8 -10  -2 1960.58 155.302   2
 -10  -8  -2 1820.66 130.905   2
  -2  -8 -10 1805.83 150.268   5
  10  -8   1 1371.57 145.286   7
  -8 -10  -1 1400.13 121.172   2
 -10  -8  -1 1503.29 143.608   2
  -1  -8 -10 1238.92 134.640   5
  -8 -10   0 417.796 131.953   2
 -10  -8   0 449.847 103.258   2
   0  -8 -10 406.728 116.651   5
   8  -1 -10 1813.09 123.611   6
  10  -1  -8 1760.76 144.009   6
  -8 -10   1 1802.89 148.525   2
   8  -2 -10 1714.37 135.593   6
  10  -2  -8 1796.32 131.145   6
 -10  -8   2 1927.99 152.075   2
  -8 -10   2 1861.68 142.374   2
   8  -3 -10 290.001 131.603   6
  10  -3  -8 454.725 110.487   6
  -8 -10   3 351.794 111.639   2
 -10  -8   3 417.590 125.633   2
  10  -4  -8 1039.77 152.162   6
   8  -4 -10 959.214 149.891   6
  -8 -10   4 891.672 116.218   2
 -10  -8   4 975.398 136.048   2
   4 -10  -8 1054.00 141.535   6
   5  -8 -10 1058.63 154.452   6
 -10  -8   5 1193.59 126.338   2
  -8 -10   5 1424.05 145.431   2
  10  -5  -8 1154.53 134.746   6
   5 -10  -8 1040.49 139.224   6
   8  -5 -10 1013.01 147.993   6
   8 -10  -5 1124.59 129.936   6
  -8 -10   6 14450.7 404.150   2
 -10  -8   6 14163.2 399.892   2
   6 -10  -8 14703.3 418.905   6
  10  -6  -8 15080.1 426.375   6
   8  -6 -10 14874.9 429.307   6
   6  -8 -10 15155.1 429.107   6
   8 -10  -6 14146.7 414.116   6
   7 -10  -8 1149.13 149.754   6
   7  -8 -10 1283.81 175.480   6
  10  -8  -7 811.257 180.071   6
   8  -8 -10 20724.4 569.129   6
   8 -10  -8 19839.7 555.706   6
  10  -8  -8 21391.4 574.928   6
   9  -9  10 13209.6 421.843   7
  10  -9   9 13590.8 421.559   7
  10  -8   9 2032.14 210.273   7
   9  -8  10 2110.78 184.528   7
  10  -9   8 1879.62 197.011   7
   9  -7  10 15583.4 464.855   7
  10  -7   9 15557.6 462.249   7
  10  -9   7 14874.2 448.659   7
   9 -10   7 15436.4 451.468   7
   9  -6  10 1163.08 186.891   7
  10  -6   9 666.179 175.109   7
  10  -9   6 1084.14 172.531   7
   9 -10   6 1280.75 152.569   7
  10  -5   9 9464.10 324.586   7
   9 -10   5 8484.34 291.371   7
  10  -9   5 8646.74 305.035   7
  -9 -10  -5 8419.18 285.904   2
 -10  -9  -5 8624.96 286.274   2
  10  -9   4 2252.14 181.920   7
   9 -10   4 2189.37 168.613   7
 -10  -9  -4 1946.07 146.888   2
  -9 -10  -4 2152.19 148.617   2
  10  -9   3 1218.51 143.123   7
   9 -10   3 949.232 128.510   7
  -9 -10  -3 1048.72 149.359   2
 -10  -9  -3 1152.48 154.818   2
  -3  -9 -10 891.111 137.775   5
  10  -9   2 5147.90 223.491   7
  -9 -10  -2 5247.92 218.865   2
 -10  -9  -2 5069.57 216.048   2
  -2  -9 -10 4774.00 201.560   5
  -9 -10  -1 857.489 131.833   2
 -10  -9  -1 843.709 130.052   2
  -1  -9 -10 659.346 121.355   5
  -9 -10   0 1056.42 141.214   2
 -10  -9   0 1266.30 144.422   2
   0  -9 -10 985.863 125.858   5
  10  -1  -9 1218.08 139.639   6
   9  -1 -10 1033.38 129.939   6
  -9 -10   1 1070.07 136.979   2
  10  -2  -9 4561.32 200.924   6
   9  -2 -10 4700.36 210.088   6
  -9 -10   2 4776.79 208.874   2
 -10  -9   2 4854.74 209.407   2
   9  -3 -10 1081.56 130.445   6
  10  -3  -9 926.263 132.929   6
 -10  -9   3 934.198 125.070   2
  -9 -10   3 1262.25 129.868   2
  10  -4  -9 1588.01 152.490   6
   9  -4 -10 1689.78 148.303   6
  -9 -10   4 1675.01 146.762   2
 -10  -9   4 1872.71 148.053   2
   5 -10  -9 7841.76 284.377   6
  10  -5  -9 8566.60 303.341   6
   9  -5 -10 8343.06 293.210   6
 -10  -9   5 8402.50 279.287   2
  -9 -10   5 8014.89 276.166   2
 -10  -9   6 829.217 149.540   2
   6 -10  -9 498.911 137.134   6
   6  -9 -10 1038.50 145.429   6
  -9 -10   6 722.398 147.030   2
  10  -6  -9 704.814 175.857   6
   9 -10  -6 1101.45 173.536   6
   9  -6 -10 1276.17 170.576   6
  10  -9  -6 808.325 164.982   6
   7  -9 -10 14372.0 433.058   6
   9 -10  -7 14337.8 431.317   6
  10  -9  -7 14262.1 434.071   6
   7 -10  -9 14127.8 429.235   6
   9 -10  -8 1498.12 198.035   6
   8  -9 -10 1888.42 198.564   6
  10  -8  -9 1630.52 208.332   6
   8 -10  -9 1808.40 193.591   6
   9  -8 -10 1698.16 191.668   6
  10  -9  -8 1992.22 206.088   6
   9 -10  -9 12680.9 412.300   6
  10  -9  -9 13173.5 418.920   6
   9  -9 -10 13408.7 421.302   6
  10 -10   9 317.188 184.959   7
  10  -9  10 585.041 192.479   7
  10  -8  10 7611.92 301.244   7
  10 -10   8 7631.82 307.418   7
  10 -10   7 544.295 176.586   7
  10  -7  10 692.837 184.067   7
  10  -6  10 13133.7 411.230   7
  10 -10   6 12325.4 391.001   7
  10 -10   5 871.382 161.215   7
  10  -5  10 707.500 161.768   7
 -10 -10  -5 728.306 153.222   2
  10 -10   4 7092.14 265.242   7
 -10 -10  -4 6551.20 262.185   2
  10 -10   3 139.917 141.798   7
 -10 -10  -3 348.977 152.956   2
 -10 -10  -2 6524.93 257.857   2
 -10 -10  -1 310.081 158.145   2
 -10 -10   0 1250.61 171.008   2
  10  -1 -10 344.696 131.983   6
  10  -2 -10 6548.15 244.142   6
 -10 -10   2 7115.84 257.554   2
  10  -3 -10 327.969 151.348   6
 -10 -10   3 199.972 157.162   2
  10  -4 -10 7469.00 283.157   6
 -10 -10   4 7619.82 277.213   2
  10  -5 -10 693.460 146.497   6
 -10 -10   5 612.663 132.336   2
   6 -10 -10 14506.3 428.668   6
  10 -10  -6 13674.8 426.386   6
  10  -6 -10 14655.6 433.731   6
 -10 -10   6 13439.9 401.696   2
  10 -10  -7 539.466 186.234   6
  10  -7 -10 1017.92 202.131   6
   7 -10 -10 471.757 184.987   6
  10 -10  -8 6450.48 285.843   6
  10  -8 -10 6609.21 295.788   6
   8 -10 -10 6428.34 288.425   6
  10 -10  -9 361.773 167.367   6
   9 -10 -10 575.598 171.031   6
  10  -9 -10 656.117 177.242   6
  10 -10 -10 1619.73 213.475   6
   0   0 -11-42.7126 245.696   1
   1   1 -11 197.128 265.585   1
  -1  -1 -11 183.669 87.7092   5
   0  -1 -11 1596.52 312.075   1
   0   1 -11 1611.41 304.859   1
   1   0 -11 1659.16 266.636   1
   0  -1 -11 1696.97 121.827   5
  -1   0 -11 1706.74 125.772   5
   1  -1 -11-28.6502 261.092   1
  11  -2   2-21.1082 117.333   7
   2   2 -11-183.840 229.878   1
  -2  -2 -11 29.8906 92.4346   5
  11  -2   1 2135.02 141.460   7
  11  -1   2 2293.55 146.084   7
   1   2 -11 2309.29 300.844   1
  -1  -2 -11 2167.19 128.404   5
  -2  -1 -11 2396.27 136.095   5
  11  -2   0 1049.03 124.321   7
   0  -2 -11 380.556 259.872   1
   0   2 -11 876.643 253.742   1
   2   0 -11 904.828 277.134   1
   0  -2 -11 759.494 110.067   5
  -2   0 -11 691.689 108.322   5
   1  -2 -11 1361.45 297.787   1
   2  -1 -11 1349.09 308.722   1
  -2   1 -11 1306.47 112.563   5
   2  -2 -11 73.1294 238.887   1
  11  -3   3 94.5636 128.463   7
   3   3 -11 420.099 277.379   1
  11  -3   2 4381.03 194.639   7
  11  -2   3 4214.12 182.437   7
   2   3 -11 4602.89 351.037   1
   3   2 -11 4858.15 382.370   1
  -3  -2 -11 4325.41 183.964   5
  11  -3   1 5017.93 206.691   7
  11  -1   3 4849.03 198.631   7
   1   3 -11 5295.10 369.760   1
   3   1 -11 5448.41 367.060   1
  -1  -3 -11 5380.56 195.431   5
  -3  -1 -11 4697.32 190.617   5
  11  -3   0 9762.73 289.448   7
  11   0   3 8910.77 279.990   7
   0  -3 -11 9260.90 472.180   1
   0   3 -11 9320.53 460.337   1
   3   0 -11 9063.90 479.219   1
  -3   0 -11 8682.33 265.415   5
   0  -3 -11 8982.98 275.433   5
   1  -3 -11 3827.04 350.448   1
  -3   1 -11 4004.29 156.356   5
   2  -3 -11 6447.79 394.944   1
   3  -2 -11 6448.87 430.487   1
  -3   2 -11 5850.06 203.293   5
   3  -3 -11 197.765 294.583   1
  -3   3 -11 2.68465 100.032   5
  11  -4   4 433.742 141.294   7
 -11  -4  -4 486.993 118.498   2
   4   4 -11 495.418 270.732   1
  -4  -4 -11 598.624 134.599   5
   4   3 -11 3600.00 355.499   1
   3   4 -11 3713.13 324.735   1
  11  -4   3 3818.70 185.909   7
  11  -3   4 3777.05 189.536   7
 -11  -3  -4 3400.21 153.689   2
 -11  -4  -3 3355.20 151.904   2
  -3  -4 -11 3518.05 172.989   5
   4   2 -11 1614.97 320.251   1
   2   4 -11 1842.53 306.205   1
  -2  -4 -11 1187.53 119.868   5
  -4  -2 -11 1740.34 142.127   5
  11  -4   2 1292.36 147.169   7
  11  -2   4 1083.78 122.598   7
  -4 -11  -2 1262.22 118.810   2
 -11  -4  -2 1502.30 118.847   2
   1   4 -11 9066.89 451.900   1
   4   1 -11 8669.61 454.248   1
  -1  -4 -11 8335.83 260.292   5
  -4  -1 -11 8190.20 265.556   5
  11  -1   4 8495.67 280.988   7
  11  -4   1 8756.98 277.257   7
 -11  -4  -1 8633.18 262.812   2
  -4 -11  -1 8406.50 259.921   2
   4   0 -11 1571.64 310.833   1
   0   4 -11 964.799 293.911   1
   0  -4 -11 941.137 291.952   1
  -4   0 -11 1050.77 122.560   5
  11   0   4 1202.96 132.804   7
  11  -4   0 1411.33 143.819   7
 -11  -4   0 1297.29 115.988   2
  -4 -11   0 1304.87 117.062   2
  11   1   4 6439.05 225.431   7
   4  -1 -11 6633.16 412.613   1
  -4 -11   1 6073.43 209.510   2
  -4   1 -11 6722.87 221.332   5
   4  -2 -11 1682.42 326.155   1
   2  -4 -11 1817.06 321.160   1
  -4 -11   2 1698.15 135.502   2
 -11  -4   2 1960.13 140.569   2
  -4   2 -11 1716.73 128.441   5
   4  -3 -11 3493.97 370.792   1
   3  -4 -11 3620.59 346.275   1
 -11  -3   4 3121.23 152.300   2
 -11  -4   3 3266.38 161.284   2
  -4   3 -11 3422.98 155.522   5
 -11  -4   4 334.228 119.599   2
   4  -4 -11 255.733 287.330   1
  11  -5   5 248.090 147.777   7
 -11  -5  -5 312.393 117.328   2
  -5  -5 -11 392.066 140.618   5
   4   5 -11 6132.34 417.981   1
  11  -4   5 5837.20 226.804   7
 -11  -5  -4 5485.97 211.403   2
 -11  -4  -5 5746.11 208.267   2
  -5 -11  -4 5949.24 216.165   2
  -4  -5 -11 5889.66 227.216   5
  -5  -4 -11 5929.45 231.011   5
 -11  -3  -5 917.251 102.326   2
   3   5 -11 780.739 275.096   1
 -11  -5  -3 757.377 116.643   2
   5   3 -11 933.825 297.199   1
  -3  -5 -11 969.633 134.621   5
  11  -3   5 1195.03 133.206   7
  -5 -11  -3 1028.19 129.312   2
  11  -2   5 3058.52 181.491   7
  -2  -5 -11 3173.18 162.163   5
  -5  -2 -11 2909.04 168.944   5
   2   5 -11 2875.54 318.915   1
   5   2 -11 3328.19 338.083   1
 -11  -5  -2 2908.08 153.412   2
  -5 -11  -2 2791.79 157.122   2
  11  -1   5 7624.49 270.731   7
  -5  -1 -11 8364.57 266.386   5
  -1  -5 -11 8244.35 266.894   5
 -11  -5  -1 8843.25 267.000   2
  -5 -11  -1 8820.82 267.596   2
   1   5 -11 7947.66 439.902   1
   5   1 -11 9023.64 485.854   1
   5   0 -11 8957.15 478.253   1
  -5   0 -11 9439.66 293.049   5
   0  -5 -11 9577.07 294.958   5
  11   0   5 9483.31 302.146   7
  11  -5   0 10220.1 303.052   7
  -5 -11   0 9702.76 287.924   2
 -11  -5   0 9266.59 285.685   2
  11   1   5 5604.37 208.518   7
  -5   1 -11 5758.85 211.765   5
   1  -5 -11 5398.20 382.290   1
   5  -1 -11 5771.56 410.271   1
  -5 -11   1 5319.91 204.932   2
  11   2   5 3861.64 181.821   7
   2  -5 -11 4256.62 360.458   1
   5  -2 -11 3636.04 371.515   1
  -5 -11   2 3833.92 173.831   2
 -11  -5   2 3949.06 175.186   2
  -5   2 -11 4035.64 174.590   5
 -11  -3   5 968.169 111.112   2
   3  -5 -11 970.771 314.721   1
 -11  -5   3 1054.95 130.640   2
   5  -3 -11 1041.46 313.544   1
  -5 -11   3 1065.94 132.949   2
  -5   3 -11 1097.37 124.170   5
   5  -4 -11 5411.14 388.820   1
   4  -5 -11 6063.30 427.656   1
 -11  -5   4 5509.47 206.563   2
  -5 -11   4 5545.00 206.893   2
 -11  -4   5 5611.47 199.053   2
 -11  -5   5 319.253 115.869   2
  -5 -11   5 393.974 117.276   2
  11  -6   6 74.7113 140.372   7
  -6  -6 -11 134.395 138.022   5
  11  -6   5 4445.49 219.384   7
  11  -5   6 4211.04 221.203   7
  -6 -11  -5 4227.53 191.468   2
 -11  -6  -5 4111.05 186.721   2
  -5  -6 -11 4550.18 203.888   5
  -6  -5 -11 4278.77 213.174   5
 -11  -6  -4 483.757 123.043   2
  -4  -6 -11 462.148 133.402   5
  -6  -4 -11 346.772 145.649   5
  11  -6   4 528.999 129.104   7
  -6 -11  -4 294.309 130.080   2
  -6  -3 -11 1610.70 138.416   5
  -3  -6 -11 1840.02 151.494   5
  11  -6   3 2185.02 173.770   7
 -11  -6  -3 1742.29 145.116   2
  -6 -11  -3 1630.34 130.706   2
  11  -3   6 1743.99 147.870   7
  -2  -6 -11 3023.66 172.273   5
  -6  -2 -11 2983.87 176.420   5
  11  -6   2 2888.56 182.796   7
  -6 -11  -2 2796.06 149.064   2
 -11  -6  -2 3187.30 166.570   2
  11  -2   6 3076.57 186.482   7
  -6  -1 -11 3412.16 173.207   5
  -1  -6 -11 3132.96 173.658   5
  11  -6   1 3506.62 189.946   7
  11  -1   6 3240.30 181.980   7
  -6 -11  -1 3342.47 178.859   2
 -11  -6  -1 3496.72 173.550   2
  11   0   6 3628.80 198.356   7
  -6   0 -11 4005.11 186.337   5
   0  -6 -11 3531.35 174.373   5
  -6 -11   0 3857.68 169.932   2
  11   1   6 2777.13 172.952   7
  -6   1 -11 2957.77 160.768   5
  -6 -11   1 2340.14 149.261   2
   1  -6 -11 2325.35 323.466   1
   2  -6 -11 3950.57 361.980   1
  -6   2 -11 4202.42 190.210   5
  11   2   6 4002.37 184.718   7
   6  -2 -11 4235.07 186.716   6
  -6 -11   2 4525.84 190.637   2
 -11  -6   2 4164.51 178.913   2
   3  -6 -11 1181.38 285.354   1
 -11  -6   3 1301.06 136.069   2
  -6 -11   3 1114.68 137.050   2
 -11  -3   6 1043.46 103.998   2
   6  -3 -11 998.081 130.612   6
   4  -6 -11 543.649 297.736   1
 -11  -6   4 963.433 124.352   2
 -11  -4   6 779.042 111.846   2
  -6 -11   4 697.383 131.283   2
   6  -4 -11 738.187 145.748   6
   6  -5 -11 3744.34 198.405   6
 -11  -5   6 3547.93 166.020   2
 -11  -6   5 3572.74 174.458   2
  -6 -11   5 3471.95 159.124   2
   6 -11  -6 190.617 128.666   6
 -11  -6   6 134.627 114.662   2
  -6 -11   6 69.1490 98.9266   2
  11  -7   7-164.762 163.735   7
  -7  -7 -11 278.018 163.006   5
  11  -7   6 2449.55 202.410   7
  11  -6   7 2790.65 207.599   7
  -7  -6 -11 2357.99 185.955   5
  -6  -7 -11 2449.30 186.691   5
 -11  -7  -5 1171.89 144.618   2
  11  -7   5 1293.34 178.182   7
  11  -5   7 1485.86 166.337   7
  -7 -11  -5 1377.03 152.757   2
  -5  -7 -11 1705.20 165.957   5
  -7  -5 -11 1601.63 175.050   5
 -11  -7  -4 393.203 134.781   2
  -4  -7 -11 471.426 142.307   5
  -7  -4 -11 343.333 154.109   5
  11  -7   4 691.333 163.083   7
  -7 -11  -4 270.440 137.922   2
  -3  -7 -11 3060.45 182.470   5
  -7  -3 -11 3354.93 185.578   5
  11  -3   7 3668.87 207.637   7
  11  -7   3 3209.52 176.599   7
  -7 -11  -3 3308.59 183.339   2
 -11  -7  -3 3393.06 178.059   2
 -11  -7  -2 380.997 135.457   2
  -2  -7 -11 228.403 139.067   5
  11  -2   7 328.816 150.091   7
  11  -7   2 261.450 145.026   7
  -7 -11  -2 282.694 137.213   2
  -1  -7 -11 9758.67 310.310   5
  -7  -1 -11 9991.72 316.248   5
  11  -1   7 9504.92 319.123   7
  11  -7   1 10122.0 322.779   7
 -11  -7  -1 9844.15 306.909   2
  -7 -11  -1 10068.7 310.194   2
 -11  -7   0 1525.95 149.183   2
  11   0   7 1576.87 153.007   7
  -7 -11   0 1308.24 152.577   2
   7   0 -11 1311.36 126.441   6
   0  -7 -11 1074.34 140.109   5
   7  -1 -11 7366.33 240.272   6
  -7 -11   1 7086.39 256.884   2
 -11  -7   2 262.060 122.754   2
  -7 -11   2 154.819 123.842   2
   7  -2 -11 353.093 104.748   6
   7  -3 -11 2369.09 166.520   6
 -11  -7   3 2663.93 166.837   2
  -7 -11   3 2374.87 165.711   2
 -11  -7   4 578.856 133.731   2
  -7 -11   4 669.322 132.797   2
   7  -4 -11 517.281 122.661   6
 -11  -7   5 880.603 131.109   2
   7  -5 -11 831.238 140.885   6
  -7 -11   5 701.839 131.160   2
   5 -11  -7 645.951 119.008   6
   7 -11  -5 725.526 121.792   6
   6  -7 -11 1691.14 180.724   6
   7  -6 -11 1623.13 181.179   6
  -7 -11   6 1428.82 131.288   2
 -11  -7   6 1491.32 131.099   2
   7 -11  -6 1601.77 153.924   6
   6 -11  -7 1580.30 139.446   6
   7 -11  -7 89.8097 150.456   6
   8  -8  11 303.332 155.026   7
  11  -8   8 843.396 171.098   7
  11  -8   7 5455.12 253.589   7
  11  -7   8 5760.32 252.337   7
  -7  -8 -11 5489.85 247.448   5
  11  -6   8 706.511 184.000   7
  11  -8   6 676.466 181.270   7
  -6  -8 -11 684.307 161.565   5
  -5  -8 -11 2623.87 182.311   5
  11  -5   8 2811.55 203.898   7
  11  -8   5 2719.39 198.668   7
 -11  -8  -5 2589.85 164.416   2
  -8 -11  -5 2492.17 159.448   2
 -11  -8  -4 444.655 145.765   2
  11  -8   4 475.871 159.113   7
  -8 -11  -4 480.850 150.378   2
  -4  -8 -11 437.084 146.043   5
 -11  -8  -3 515.779 127.408   2
  -3  -8 -11 642.581 150.982   5
  11  -8   3 599.390 157.759   7
  11  -3   8 433.679 166.666   7
  -8 -11  -3 411.643 122.188   2
  -2  -8 -11 5888.45 232.231   5
  11  -8   2 5428.94 241.100   7
  -8 -11  -2 5634.12 218.412   2
 -11  -8  -2 5860.83 222.715   2
  11  -2   8 5896.60 259.470   7
 -11  -8  -1 1786.51 165.108   2
  -8 -11  -1 1567.99 164.408   2
  -1  -8 -11 1295.84 151.710   5
 -11  -8   0 12965.1 359.992   2
  -8 -11   0 12150.5 354.481   2
  11  -1  -8 1653.18 151.220   6
   8  -1 -11 1425.11 134.677   6
  -8 -11   1 1527.80 152.545   2
  11  -2  -8 6861.32 252.572   6
   8  -2 -11 6618.64 241.621   6
  -8 -11   2 6844.88 252.795   2
 -11  -8   2 6739.22 252.617   2
  11  -3  -8 210.105 144.734   6
   8  -3 -11 306.027 145.964   6
 -11  -8   3 261.741 147.619   2
  -8 -11   3 346.358 143.619   2
   8  -4 -11 610.613 133.202   6
  11  -4  -8 514.072 159.475   6
 -11  -8   4 647.203 145.358   2
  -8 -11   4 853.338 151.607   2
   8  -5 -11 1897.47 174.023   6
   8 -11  -5 1946.47 149.843   6
   5 -11  -8 2200.09 171.182   6
  11  -5  -8 2158.51 188.467   6
 -11  -8   5 1637.24 143.943   2
  -8 -11   5 2229.03 156.619   2
   8  -6 -11 636.815 177.549   6
   8 -11  -6 624.187 155.355   6
  11  -6  -8 830.469 171.835   6
   6 -11  -8 570.409 155.810   6
 -11  -8   6 674.117 139.060   2
  -8 -11   6 720.631 142.503   2
   7 -11  -8 5977.51 253.698   6
   7  -8 -11 6634.52 269.259   6
  11  -8  -7 6541.79 276.068   6
   8 -11  -7 6094.79 260.415   6
   8  -8 -11 373.026 187.565   6
  11  -8  -8 708.447 185.884   6
   8 -11  -8 451.324 163.501   6
  11  -9   9 78.0588 193.292   7
   9  -9  11 288.598 186.312   7
  11  -8   9 3484.19 239.403   7
  11  -9   8 3595.97 234.484   7
   9  -8  11 3023.81 207.312   7
  11  -9   7 459.411 184.399   7
  11  -7   9 375.677 187.847   7
   9  -7  11 319.694 189.203   7
  11  -9   6 166.776 174.245   7
  11  -6   9 452.915 189.883   7
 -11  -9  -5 1139.39 166.726   2
  -5  -9 -11 946.833 148.981   5
  -9 -11  -5 1030.27 140.651   2
  11  -9   5 1017.92 183.301   7
  11  -5   9 1029.20 164.618   7
  -4  -9 -11 4768.76 209.853   5
  11  -9   4 4485.13 235.757   7
 -11  -9  -4 4588.89 205.894   2
  -9 -11  -4 4993.45 227.206   2
  -3  -9 -11 1540.24 149.996   5
  11  -9   3 1639.08 184.415   7
 -11  -9  -3 2113.55 179.243   2
  -9 -11  -3 1778.18 163.514   2
  11  -3   9 2224.62 208.513   7
  -9 -11  -2 7572.60 271.236   2
 -11  -9  -2 7712.75 274.766   2
  -2  -9 -11 7185.81 264.808   5
  -9 -11  -1 5536.19 243.038   2
 -11  -9  -1 5614.82 229.762   2
  -1  -9 -11 5182.28 229.787   5
  -9 -11   0 2453.80 187.208   2
 -11  -9   0 2885.30 181.487   2
   9  -1 -11 4680.11 198.269   6
  11  -1  -9 5035.43 209.492   6
   1  -9 -11 4775.33 218.781   5
   9  -2 -11 6806.72 253.705   6
  11  -2  -9 6986.40 263.417   6
  -9 -11   2 7318.51 269.028   2
 -11  -9   2 7423.41 273.037   2
   9  -3 -11 1592.51 171.622   6
  11  -3  -9 1516.83 160.502   6
 -11  -9   3 1215.49 143.428   2
  -9 -11   3 1492.42 176.739   2
  11  -4  -9 4699.69 234.054   6
   9  -4 -11 4782.42 236.140   6
  -9 -11   4 5131.56 225.888   2
 -11  -9   4 4430.70 207.573   2
   9 -11  -5 518.460 156.094   6
  11  -5  -9 333.218 167.906   6
   9  -5 -11 616.526 177.632   6
 -11  -9   5 512.496 158.752   2
  -9 -11   5 625.171 139.647   2
 -11  -9   6 433.896 146.918   2
   6 -11  -9 144.160 141.191   6
  -9 -11   6 306.238 150.001   2
   9  -6 -11 258.139 148.792   6
   9 -11  -6 161.428 153.293   6
  11  -6  -9 343.564 188.784   6
  11  -7  -9 9.96844 196.693   6
   9 -11  -7 304.522 147.128   6
   7 -11  -9 513.012 169.206   6
  11  -9  -7 197.639 188.906   6
   7  -9 -11 100.113 190.905   6
   8 -11  -9 3516.90 224.753   6
   9  -8 -11 3904.69 239.414   6
   9 -11  -8 3799.46 235.953   6
   8  -9 -11 3939.24 248.837   6
  11  -9  -8 3860.55 251.230   6
  11  -8  -9 3698.99 235.477   6
   9 -11  -9-70.9177 184.225   6
  11  -9  -9 191.957 207.981   6
   9  -9 -11 401.590 179.984   6
  11 -10  10 235.205 195.469   7
  11  -9  10 4573.66 254.672   7
  11 -10   9 4541.13 245.890   7
  10  -9  11 4587.82 263.911   7
  11  -8  10 1982.77 203.080   7
  11 -10   8 2035.29 215.178   7
  10  -8  11 1864.98 202.131   7
  11  -7  10 6893.07 293.437   7
  10  -7  11 6524.42 302.704   7
  11 -10   7 6727.55 293.052   7
  11 -10   6 1420.02 173.563   7
  10  -6  11 1252.36 205.785   7
  11  -6  10 1300.08 190.376   7
  11  -5  10 6016.64 284.615   7
  11 -10   5 5576.14 261.718   7
 -10 -11  -5 5397.99 250.034   2
 -11 -10  -5 5174.20 230.499   2
  11 -10   4 1408.45 190.825   7
  10 -11   4 1771.95 179.592   7
 -11 -10  -4 1219.23 181.029   2
 -10 -11  -4 1353.89 166.857   2
  11  -3  10 971.338 191.375   7
  11 -10   3 848.699 174.679   7
 -10 -11  -3 1213.80 185.785   2
 -11 -10  -3 1169.67 169.077   2
 -10 -11  -2 8954.37 318.302   2
 -11 -10  -2 9337.86 319.594   2
 -10 -11  -1 1493.91 169.827   2
 -11 -10  -1 1479.82 187.266   2
 -11 -10   0 21369.1 565.562   2
 -10 -11   0 20103.6 558.718   2
  10  -1 -11 1533.91 163.113   6
  11  -1 -10 1378.84 157.209   6
   1 -10 -11 1357.91 168.439   5
  11  -2 -10 9603.09 321.752   6
  10  -2 -11 10431.3 325.742   6
 -10 -11   2 9855.71 333.836   2
 -11 -10   2 9802.02 330.572   2
  11  -3 -10 1117.12 166.747   6
  10  -3 -11 1181.92 174.813   6
 -10 -11   3 1416.80 157.584   2
 -11 -10   3 1357.73 182.890   2
  11  -4 -10 1328.08 177.738   6
  10  -4 -11 1723.14 179.373   6
 -10 -11   4 1251.21 155.489   2
 -11 -10   4 1455.59 186.602   2
  10 -11  -5 5004.30 247.942   6
  11  -5 -10 4872.84 247.038   6
  10  -5 -11 5589.96 263.984   6
 -11 -10   5 5390.42 228.933   2
 -10 -11   5 5187.18 238.122   2
  10 -11  -6 941.027 160.522   6
  10  -6 -11 1519.17 191.665   6
  11  -6 -10 1567.04 205.174   6
  11 -10  -6 1249.89 184.833   6
 -11 -10   6 1770.17 176.339   2
 -10 -11   6 1596.79 157.984   2
   7 -11 -10 5780.83 274.657   6
  11 -10  -7 6561.79 291.923   6
  10 -11  -7 6099.13 277.230   6
  11  -7 -10 6137.01 291.129   6
  10  -7 -11 6480.61 292.824   6
  10 -11  -8 2162.09 223.857   6
  11 -10  -8 2164.60 229.458   6
   8 -11 -10 2240.68 222.799   6
   8 -10 -11 2307.74 209.495   6
   9 -10 -11 4572.13 276.202   6
  10 -11  -9 4509.65 240.686   6
  10  -9 -11 4868.45 252.173   6
   9 -11 -10 4677.38 253.274   6
  11 -10  -9 4729.81 263.099   6
  11  -9 -10 4648.17 270.216   6
  10 -10 -11 403.393 225.668   6
  10 -11 -10 204.248 210.356   6
  11 -10 -10 129.124 187.734   6
  11 -10  11 2375.82 234.808   7
  11  -9  11-47.1312 175.516   7
  11  -8  11 1582.66 211.141   7
  11  -7  11 318.176 191.996   7
  11 -11   6 1465.29 201.366   7
  11  -6  11 1701.88 194.958   7
 -11 -11  -5 149.462 175.275   2
  11  -5  11 416.629 211.792   7
  11 -11   5 652.884 172.567   7
  11  -4  11 5608.62 286.626   7
 -11 -11  -4 5453.99 257.023   2
 -11 -11  -3 427.622 190.778   2
 -11 -11  -2 7624.03 302.856   2
 -11 -11  -1 458.212 163.084   2
 -11 -11   0 3744.49 229.440   2
  11  -2 -11 6592.79 263.345   6
 -11 -11   2 6803.81 277.721   2
  11  -3 -11 217.593 173.447   6
 -11 -11   3 183.426 165.450   2
  11  -4 -11 5637.44 263.822   6
 -11 -11   4 5467.81 249.594   2
  11 -11  -5 133.519 182.726   6
  11  -5 -11 241.815 194.127   6
 -11 -11   5 373.389 164.381   2
  11 -11  -6 1838.87 211.950   6
  11  -6 -11 2480.17 198.993   6
 -11 -11   6 2377.22 183.989   2
  11  -7 -11-111.897 203.458   6
  11 -11  -7 148.434 163.002   6
  11 -11  -8 1017.80 215.059   6
  11 -11  -9 105.388 195.323   6
  11  -9 -11 124.731 183.313   6
   9 -11 -11 82.9824 216.648   6
  11 -11 -10 1957.38 230.168   6
  11 -10 -11 2381.14 252.141   6
  10 -11 -11 2181.47 240.881   6
  11 -11 -11 317.194 234.181   6
  12   0   0 381.168 102.322   7
   0   0 -12 292.225 311.268   1
   0   0 -12 214.104 113.681   5
  12  -1   1 9996.59 304.058   7
   1   1 -12 9316.58 494.331   1
   1   1 -12 9929.65 290.523   5
  -1  -1 -12 9488.01 292.232   5
  12   0   1 345.323 113.306   7
  12  -1   0 387.428 109.191   7
   0  -1 -12 16.3982 323.977   1
   0   1 -12 531.819 322.817   1
   1   0 -12 668.030 316.604   1
   0  -1 -12 318.405 108.025   5
  -1   0 -12 352.755 117.389   5
   0   1 -12 510.105 115.293   5
   1   0 -12 334.024 106.325   5
   1  -1 -12 12466.2 573.051   1
   1  -1 -12 12397.0 350.354   5
  -1   1 -12 12189.3 343.082   5
  12  -2   2 7622.02 266.566   7
   2   2 -12 8261.50 453.832   1
  -2  -2 -12 7692.48 254.358   5
   2   2 -12 6930.26 234.160   5
  12  -1   2 2338.35 163.665   7
  12  -2   1 2121.88 156.186   7
   2   1 -12 2837.97 370.932   1
   1   2 -12 2813.77 357.765   1
  -2  -1 -12 2634.18 157.138   5
  -1  -2 -12 2435.64 148.649   5
   1   2 -12 2218.30 127.639   5
  12   0   2 4608.50 188.552   7
  12  -2   0 5151.15 205.803   7
   2   0 -12 4157.27 392.090   1
   0   2 -12 4631.62 378.359   1
   0  -2 -12 4095.31 369.640   1
   0  -2 -12 4218.70 187.356   5
  -2   0 -12 4301.08 184.413   5
   0   2 -12 4518.15 178.808   5
  12   1   2 3884.22 177.003   7
   2  -1 -12 3624.29 398.381   1
   1  -2 -12 4017.84 392.766   1
  -1   2 -12 3867.20 166.290   5
  -2   1 -12 3736.59 163.802   5
   2  -2 -12 6470.29 421.952   1
  -2   2 -12 6229.41 218.690   5
  12  -3   3 12939.8 377.901   7
 -12  -3  -3 11835.7 354.291   2
  12  -2   3 1772.55 153.766   7
  12  -3   2 1836.73 167.404   7
   2   3 -12 1581.52 288.799   1
  -3  -2 -12 1992.41 155.491   5
  -2  -3 -12 2107.23 140.189   5
  12  -1   3 5124.07 217.666   7
  12  -3   1 5631.21 223.724   7
  -3  -1 -12 5673.73 214.787   5
  -1  -3 -12 5103.69 213.349   5
  12  -3   0 10251.5 315.003   7
  12   0   3 9547.06 308.095   7
   0  -3 -12 9974.53 514.080   1
   0   3 -12 9748.11 496.396   1
  -3   0 -12 9607.17 290.649   5
   0  -3 -12 9834.70 302.999   5
  12   1   3 5139.26 207.421   7
  -3   1 -12 5257.56 193.322   5
   2  -3 -12 1713.10 313.817   1
  -3   2 -12 1868.08 140.000   5
  -3   3 -12 12206.5 342.155   5
  12  -4   4 2377.48 185.800   7
 -12  -4  -4 2187.05 148.644   2
  -4  -4 -12 2334.34 172.989   5
  12  -4   3 937.757 132.226   7
  12  -3   4 811.281 145.882   7
 -12  -4  -3 959.344 139.847   2
 -12  -3  -4 756.596 126.973   2
  -3  -4 -12 665.755 151.300   5
  12  -4   2 3839.54 191.878   7
  12  -2   4 4086.96 207.725   7
 -12  -4  -2 4098.77 193.592   2
  -2  -4 -12 4195.67 198.776   5
  -4  -2 -12 4364.26 200.068   5
   1   4 -12 6385.27 425.487   1
  12  -1   4 6595.74 250.118   7
  12  -4   1 6452.30 242.685   7
 -12  -4  -1 6597.42 239.668   2
  -4  -1 -12 7176.01 245.330   5
  12  -4   0 733.687 147.286   7
  12   0   4 441.940 138.643   7
 -12  -4   0 796.374 140.377   2
  -4   0 -12 560.653 113.603   5
  12   1   4 6480.13 235.576   7
  -4   1 -12 6399.97 228.120   5
 -12  -4   2 3842.91 169.032   2
  -4   2 -12 3747.12 172.291   5
 -12  -4   3 1233.36 139.427   2
 -12  -3   4 1240.41 121.595   2
  -4   3 -12 1435.36 122.577   5
 -12  -4   4 1752.94 135.232   2
 -12  -5  -5 11300.1 336.083   2
  -5  -5 -12 11036.2 343.295   5
  12  -4   5 708.735 163.390   7
 -12  -5  -4 860.963 139.836   2
 -12  -4  -5 784.181 134.004   2
  -5  -4 -12 933.766 139.572   5
  -4  -5 -12 706.836 151.959   5
  -3  -5 -12 12240.6 355.898   5
 -12  -3  -5 11077.5 337.488   2
 -12  -5  -3 11482.4 344.761   2
  12  -3   5 11529.9 367.620   7
  -5  -2 -12 1761.67 157.962   5
  -2  -5 -12 1810.85 159.984   5
  12  -2   5 1819.55 152.315   7
  12  -5   2 1960.41 174.825   7
 -12  -5  -2 2204.86 162.412   2
  -1  -5 -12 7871.20 272.632   5
  -5  -1 -12 8420.49 278.485   5
  12  -1   5 8226.54 286.268   7
  12  -5   1 8768.30 292.190   7
  -5 -12  -1 8018.03 277.506   2
 -12  -5  -1 7938.50 272.066   2
  12   0   5 1612.01 148.502   7
   0  -5 -12 1706.29 159.033   5
  -5   0 -12 1743.16 153.891   5
 -12  -5   0 1677.33 153.569   2
  -5 -12   0 1716.52 141.483   2
  12   1   5 7206.01 262.346   7
  -5 -12   1 7341.89 254.127   2
  -5   1 -12 7647.63 258.913   5
 -12  -5   2 2474.70 148.012   2
  -5 -12   2 2168.71 163.761   2
  -5   2 -12 2209.32 150.296   5
 -12  -5   3 11200.4 341.272   2
 -12  -3   5 11408.3 338.367   2
  -5   3 -12 11614.8 336.263   5
 -12  -5   4 624.196 130.875   2
 -12  -4   5 573.456 133.413   2
 -12  -5   5 11826.1 348.502   2
  12  -6   6 4624.75 235.304   7
  -6  -6 -12 4213.82 212.522   5
  12  -6   5 627.693 177.262   7
 -12  -6  -5 550.564 139.207   2
  -6  -5 -12 674.567 160.754   5
  -5  -6 -12 523.207 163.657   5
 -12  -6  -4 474.783 141.260   2
  -4  -6 -12 424.656 154.732   5
  -6  -4 -12 444.184 150.391   5
  12  -4   6 544.461 172.584   7
  12  -6   4 512.550 169.108   7
  -6 -12  -4 388.540 146.498   2
  -3  -6 -12 2868.71 177.211   5
  12  -6   3 2848.74 182.871   7
  12  -3   6 2759.68 197.246   7
  -6 -12  -3 2859.68 158.511   2
 -12  -6  -3 2771.76 173.690   2
  12  -2   6 3561.73 198.106   7
 -12  -6  -2 3627.21 188.481   2
  -6 -12  -2 4070.89 181.829   2
  -2  -6 -12 3482.18 191.815   5
  -6  -2 -12 3646.91 184.915   5
  12  -1   6 8027.09 286.167   7
  -6 -12  -1 7657.96 274.686   2
 -12  -6  -1 7880.66 273.813   2
  -1  -6 -12 7842.43 279.842   5
  -6  -1 -12 8086.34 268.172   5
  12   0   6 1710.60 165.474   7
 -12  -6   0 1994.88 163.669   2
  -6 -12   0 1807.08 151.523   2
   0  -6 -12 1827.90 159.216   5
  -6   0 -12 1640.85 167.168   5
  12   1   6 6979.20 257.016   7
  -6 -12   1 7212.22 255.813   2
  -6   1 -12 7394.22 258.669   5
  12   2   6 4066.01 206.438   7
  -6 -12   2 4389.85 205.830   2
 -12  -6   2 4172.34 195.951   2
  -6   2 -12 4347.41 201.036   5
 -12  -6   3 2689.07 179.507   2
 -12  -3   6 2733.29 163.872   2
  -6 -12   3 2830.25 180.588   2
 -12  -6   4 447.232 144.337   2
 -12  -4   6 450.359 127.984   2
  -6 -12   4 389.461 144.255   2
 -12  -6   5 763.103 130.339   2
 -12  -5   6 699.445 131.174   2
  -6 -12   5 872.065 126.736   2
 -12  -6   6 3593.63 174.178   2
  -7  -7 -12 1927.81 199.724   5
  12  -7   7 1803.08 183.200   7
  -7  -6 -12 1696.49 190.683   5
  -6  -7 -12 1781.11 186.806   5
  12  -6   7 1981.77 210.400   7
  12  -7   6 1995.50 205.492   7
  -7  -5 -12 2020.99 193.147   5
  -5  -7 -12 1745.53 163.585   5
  12  -7   5 1655.45 171.098   7
 -12  -7  -5 1664.66 145.186   2
  -7 -12  -5 1447.63 171.769   2
  -4  -7 -12 2408.70 188.831   5
  -7  -4 -12 3276.81 211.415   5
  12  -7   4 3060.42 190.052   7
 -12  -7  -4 3073.24 185.521   2
  -7 -12  -4 2970.92 189.348   2
  12  -4   7 2956.60 195.958   7
  -3  -7 -12 4708.92 223.222   5
  -7  -3 -12 4602.60 217.711   5
  12  -3   7 4745.62 236.999   7
  12  -7   3 4516.62 227.699   7
  -7 -12  -3 4536.30 220.699   2
 -12  -7  -3 4657.93 199.971   2
 -12  -7  -2 1247.36 138.412   2
  -7  -2 -12 1232.99 176.020   5
  -2  -7 -12 1179.92 146.223   5
  12  -2   7 1146.02 179.962   7
  12  -7   2 1270.27 173.865   7
  -7 -12  -2 1361.57 169.604   2
  12  -1   7 7660.99 297.508   7
 -12  -7  -1 8516.32 286.832   2
  -7 -12  -1 8237.88 281.177   2
  -7  -1 -12 8474.14 293.217   5
  -1  -7 -12 8089.28 291.442   5
 -12  -7   0 819.533 141.097   2
  12   0   7 800.383 150.974   7
  -7 -12   0 574.752 158.707   2
   1  -7 -12 7835.22 278.734   5
  -7 -12   1 8234.29 284.446   2
  12   1   7 7807.44 292.285   7
 -12  -7   2 2145.41 175.465   2
  -7 -12   2 1626.61 145.944   2
  12   2   7 1842.45 166.042   7
 -12  -7   3 5090.09 222.417   2
  -7 -12   3 5083.08 222.403   2
  -7 -12   4 3133.93 185.297   2
 -12  -7   4 3537.64 193.583   2
 -12  -7   5 2058.65 161.565   2
  -7 -12   5 1996.56 163.653   2
  -7 -12   6 1875.44 147.072   2
 -12  -7   6 1994.41 166.409   2
   7 -12  -7 1466.41 161.801   6
   8  -8  12 8574.90 321.070   7
  12  -8   8 8377.04 334.617   7
  12  -7   8 647.508 170.433   7
  12  -8   7 412.313 185.512   7
  -7  -8 -12 172.106 178.058   5
  12  -6   8 6545.88 295.137   7
  12  -8   6 5991.67 265.596   7
  -6  -8 -12 6053.70 267.519   5
 -12  -8  -5 780.815 167.886   2
  -5  -8 -12 558.587 149.153   5
  -8 -12  -5 894.287 144.055   2
  12  -8   5 794.717 188.753   7
  12  -5   8 594.082 172.548   7
  -4  -8 -12 1890.49 176.757   5
  12  -8   4 2043.35 197.987   7
  -8 -12  -4 2409.32 192.450   2
 -12  -8  -4 1764.98 165.302   2
  -3  -8 -12 2331.03 187.925   5
  12  -8   3 2167.31 195.118   7
 -12  -8  -3 2367.62 192.519   2
  -8 -12  -3 2076.35 173.430   2
  12  -3   8 2295.67 193.994   7
  -2  -8 -12 3286.05 189.087   5
  12  -8   2 3113.39 196.213   7
 -12  -8  -2 3823.69 210.148   2
  -8 -12  -2 3610.39 204.587   2
  12  -2   8 3603.98 230.851   7
  -1  -8 -12 3843.59 211.446   5
  -8 -12  -1 4244.07 220.441   2
 -12  -8  -1 3463.52 191.434   2
  12  -1   8 3723.13 209.109   7
   0  -8 -12 3551.07 199.196   5
 -12  -8   0 3562.56 204.556   2
  -8 -12   0 3681.70 214.916   2
  12   0   8 3913.19 208.813   7
   1  -8 -12 2767.95 182.480   5
  12   1   8 3136.06 196.353   7
  -8 -12   1 3278.91 209.651   2
  12  -1  -8 3175.46 187.952   6
  12   2   8 4135.09 226.319   7
  12  -2  -8 3840.58 192.968   6
   8  -2 -12 4174.58 208.791   6
 -12  -8   2 3712.55 204.743   2
  -8 -12   2 3873.59 207.672   2
   8  -3 -12 2888.50 190.602   6
  12  -3  -8 3058.85 181.119   6
  -8 -12   3 2904.70 199.470   2
 -12  -8   3 2790.32 174.858   2
   8  -4 -12 2655.59 201.669   6
  12  -4  -8 2513.80 199.367   6
 -12  -8   4 2419.15 164.111   2
  -8 -12   4 2125.16 185.093   2
 -12  -8   5 1158.98 168.374   2
   8  -5 -12 1127.83 186.754   6
  12  -5  -8 805.982 164.901   6
  -8 -12   5 853.834 138.447   2
   6 -12  -8 5765.16 243.737   6
  12  -6  -8 6313.04 271.892   6
   8 -12  -6 5817.84 249.412   6
   8  -6 -12 6316.69 272.917   6
  -8 -12   6 5801.04 242.137   2
 -12  -8   6 5628.14 232.338   2
   7 -12  -8 247.014 164.948   6
  12  -7  -8 269.451 162.945   6
  12  -8  -7 428.294 198.269   6
   8 -12  -7 162.376 154.902   6
   8 -12  -8 7519.18 299.687   6
  12  -8  -8 8032.32 328.671   6
   9  -9  12 2746.88 223.382   7
  12  -9   9 2781.12 238.931   7
  12  -9   8 1620.41 204.969   7
   9  -8  12 1159.18 187.534   7
  12  -8   9 1300.18 207.237   7
   9  -7  12 3416.42 237.949   7
  12  -9   7 3595.96 239.284   7
  12  -7   9 3613.46 256.500   7
  -7  -9 -12 3345.92 226.567   5
  12  -9   6 2049.42 191.021   7
  12  -6   9 1947.46 217.076   7
  -6  -9 -12 1821.17 178.693   5
 -12  -9  -5 407.721 145.821   2
  12  -5   9 490.316 199.083   7
  12  -9   5 379.123 190.118   7
  -9 -12  -5 417.760 155.724   2
  -5  -9 -12 483.482 168.036   5
  12  -9   4 2421.85 213.813   7
  -9 -12  -4 2708.94 209.553   2
 -12  -9  -4 2619.30 199.544   2
  -4  -9 -12 2565.07 197.131   5
 -12  -9  -3 514.914 155.294   2
  -3  -9 -12 576.233 147.519   5
  12  -9   3 1084.76 184.269   7
  12  -3   9 978.336 202.664   7
  -9 -12  -3 769.302 181.015   2
  12  -2   9 2496.62 219.004   7
 -12  -9  -2 2250.28 189.319   2
  -9 -12  -2 2708.85 207.974   2
  -2  -9 -12 2568.03 194.592   5
 -12  -9  -1 1219.94 186.358   2
  -1  -9 -12 1095.14 155.200   5
  12  -1   9 874.056 192.543   7
  -9 -12  -1 1222.19 178.320   2
  12   0   9 2424.50 199.715   7
 -12  -9   0 2004.48 198.896   2
  -9 -12   0 2504.37 207.844   2
   0  -9 -12 2301.98 189.568   5
  12  -1  -9 1331.77 166.389   6
  12   1   9 1527.99 195.775   7
   9  -1 -12 1295.65 155.218   6
   1  -9 -12 1193.83 177.643   5
   9  -2 -12 1820.89 176.601   6
  12  -2  -9 1712.67 169.262   6
 -12  -9   2 1980.29 191.685   2
  -9 -12   2 1531.60 167.521   2
 -12  -9   3 1193.97 188.138   2
  12  -3  -9 1274.94 181.698   6
  -9 -12   3 1382.77 184.934   2
   9  -3 -12 1241.57 156.810   6
   9  -4 -12 2416.82 194.276   6
  12  -4  -9 2616.56 200.733   6
  -9 -12   4 2702.87 199.676   2
 -12  -9   4 2560.69 201.585   2
 -12  -9   5 432.952 158.343   2
   9  -5 -12 314.461 171.337   6
  -9 -12   5 212.717 137.277   2
   9 -12  -5 366.034 165.866   6
  12  -5  -9 249.487 189.372   6
   9  -6 -12 1885.66 203.097   6
  -9 -12   6 1897.40 178.462   2
 -12  -9   6 1916.75 187.473   2
   9 -12  -6 1595.99 173.721   6
  12  -6  -9 1752.29 189.838   6
   9  -7 -12 3733.73 236.428   6
   7 -12  -9 3164.47 206.662   6
  12  -9  -7 3360.51 235.865   6
  12  -7  -9 3502.15 225.346   6
   9 -12  -7 3353.17 223.240   6
   8 -12  -9 1345.16 188.121   6
   9 -12  -8 1550.32 181.804   6
  12  -9  -8 1775.19 197.528   6
   9 -12  -9 2941.92 235.996   6
   9  -9 -12 3268.49 235.130   6
  12  -9  -9 3118.90 237.804   6
  12 -10  10 4188.29 264.932   7
  12 -10   9 453.890 208.971   7
  10  -9  12 406.200 202.675   7
  12  -9  10 6.03279 184.925   7
  12 -10   8 1378.39 198.944   7
  10  -8  12 1803.54 201.271   7
  12  -8  10 1661.04 220.531   7
  12 -10   7 1234.57 184.552   7
  10  -7  12 1456.02 196.554   7
  12  -7  10 1116.76 190.559   7
  12 -10   6 6178.45 284.976   7
  12  -6  10 6478.19 310.666   7
  10  -6  12 6470.11 287.914   7
 -10 -12  -5 1250.30 193.173   2
 -12 -10  -5 807.107 182.499   2
  12 -10   5 998.822 202.292   7
  12  -5  10 1059.82 189.472   7
 -10 -12  -4 6687.20 266.251   2
 -12 -10  -4 6670.54 283.613   2
  12 -10   4 6730.70 291.814   7
 -10 -12  -3 1416.69 186.400   2
  12  -3  10 1286.43 187.741   7
 -12 -10  -3 1406.36 199.761   2
 -10 -12  -2 4071.16 220.942   2
 -12 -10  -2 4081.90 246.106   2
  12  -2  10 4514.75 266.613   7
  12  -1  10 2130.35 196.392   7
 -12 -10  -1 1775.82 182.837   2
 -10 -12  -1 2222.13 216.417   2
  -1 -10 -12 1757.65 174.969   5
 -12 -10   0 705.126 190.236   2
 -10 -12   0 662.081 175.570   2
   0 -10 -12 829.330 168.180   5
   1 -10 -12 1445.56 184.215   5
  12  -2 -10 4025.10 225.180   6
  10  -2 -12 3888.42 220.894   6
 -10 -12   2 3911.32 244.725   2
 -12 -10   2 3766.53 223.064   2
   2 -10 -12 3803.92 223.061   5
  10  -3 -12 1681.26 183.172   6
  12  -3 -10 1578.17 193.694   6
 -12 -10   3 1680.52 191.229   2
 -10 -12   3 1809.12 196.390   2
  10  -4 -12 6543.43 284.963   6
  10 -12  -4 5959.71 259.374   6
  12  -4 -10 6410.62 284.490   6
 -12 -10   4 6771.37 273.003   2
 -10 -12   4 6414.16 267.977   2
  12  -5 -10 1551.00 215.832   6
  10 -12  -5 1162.93 187.971   6
  10  -5 -12 1282.56 208.759   6
 -12 -10   5 1454.54 176.370   2
 -10 -12   5 1415.86 196.562   2
 -10 -12   6 5892.99 252.477   2
 -12 -10   6 6065.51 255.136   2
  10  -6 -12 6006.81 266.052   6
  10 -12  -6 5286.44 259.920   6
  12 -10  -6 5783.22 288.327   6
  12  -6 -10 6043.81 289.531   6
  10 -12  -7 1186.42 200.891   6
  12  -7 -10 1715.70 213.117   6
  12 -10  -7 1117.04 204.826   6
  10  -7 -12 1581.92 224.522   6
  10 -12  -8 1375.59 195.061   6
  12 -10  -8 1621.06 200.869   6
   8 -12 -10 1560.20 214.758   6
  10 -12  -9 325.920 206.577   6
  12 -10  -9 735.622 225.903   6
  12  -9 -10 393.306 222.463   6
   9 -12 -10 385.925 170.800   6
  10  -9 -12 147.357 211.863   6
  10 -12 -10 2750.26 228.262   6
  12 -10 -10 2538.68 251.619   6
  12 -10  11 623.074 208.733   7
  11  -9  12 457.741 212.554   7
  12  -9  11 700.640 197.777   7
  11  -8  12 2008.57 214.881   7
  12 -11   8 2548.36 230.414   7
  12  -8  11 2238.83 234.999   7
  12 -11   7 819.374 208.330   7
  12  -7  11 987.970 195.321   7
  11  -7  12 995.420 198.444   7
  12 -11   6 880.568 206.678   7
  11  -6  12 1565.57 234.505   7
  12  -6  11 1589.39 240.079   7
 -11 -12  -5 981.126 203.036   2
 -12 -11  -5 1047.28 201.657   2
  12 -11   5 763.122 177.478   7
  11  -5  12 1079.35 209.090   7
  12  -5  11 1010.44 196.449   7
 -11 -12  -4 555.415 169.825   2
 -12 -11  -4 316.654 165.308   2
  11  -4  12 628.772 219.743   7
 -11 -12  -3 503.383 198.726   2
  12  -3  11 323.065 179.518   7
 -12 -11  -3 478.329 193.241   2
  12  -2  11 4060.26 271.841   7
 -11 -12  -2 4005.93 240.463   2
 -12 -11  -2 4197.59 236.282   2
 -12 -11  -1 1107.73 211.855   2
 -11 -12  -1 949.816 207.555   2
 -12 -11   0 13382.2 414.845   2
 -11 -12   0 13126.4 415.006   2
  11  -2 -12 4005.00 230.234   6
  12  -2 -11 4130.93 226.485   6
 -12 -11   2 3930.70 253.094   2
 -11 -12   2 3660.90 251.286   2
  11  -3 -12 525.117 167.658   6
  12  -3 -11 408.230 175.692   6
 -12 -11   3 738.277 177.882   2
 -11 -12   3 599.811 172.466   2
  11 -12  -4 408.992 159.535   6
  11  -4 -12 402.971 193.927   6
  12  -4 -11 910.664 197.396   6
 -12 -11   4 594.215 166.443   2
 -11 -12   4 689.604 165.226   2
  12  -5 -11 785.464 175.464   6
  12 -11  -5 927.358 202.062   6
  11  -5 -12 595.023 199.740   6
  11 -12  -5 583.336 190.366   6
 -12 -11   5 577.864 195.266   2
 -11 -12   5 842.439 195.205   2
 -12 -11   6 1042.34 168.791   2
 -11 -12   6 1160.24 169.222   2
  12 -11  -6 1190.68 186.394   6
  11  -6 -12 1057.54 195.454   6
  12  -6 -11 1181.29 224.070   6
  11 -12  -6 681.747 170.789   6
  11 -12  -7 982.732 212.675   6
  11  -7 -12 1354.16 221.543   6
  12  -7 -11 1349.06 220.929   6
  12 -11  -7 1372.29 227.707   6
  12 -11  -8 2290.06 211.454   6
  12  -8 -11 2426.24 244.110   6
  11 -12  -8 1903.38 201.191   6
  11  -8 -12 2524.79 250.851   6
  12  -9 -11 1073.90 247.266   6
  11 -12  -9 1245.04 224.471   6
  12 -11  -9 1323.84 231.262   6
  11  -9 -12 1107.24 212.102   6
  12 -11 -10-35.3584 219.902   6
  11 -12 -10 329.211 182.097   6
  12 -10 -11 470.446 199.198   6
  11 -10 -12 600.247 233.289   6
  12 -11 -11 574.958 209.901   6
  11 -12 -11 759.441 230.503   6
  12 -12  12 4414.78 129.724   8
  11 -12  12 40.8449 77.0624   8
  12 -10  12 6352.81 313.834   7
  12  -9  12 267.100 202.595   7
  12  -8  12 805.528 204.093   7
  12  -7  12 196.758 220.794   7
  12  -6  12 1988.46 247.374   7
  12  -5  12 267.211 220.830   7
 -12 -12  -5 489.583 207.759   2
 -12 -12  -4 4333.47 241.019   2
  12  -3  12 223.064 226.387   7
 -12 -12  -3 14.7138 179.977   2
  12  -2  12 3991.68 281.872   7
 -12 -12  -2 3900.00 233.272   2
 -12 -12  -1 200.104 215.588   2
 -12 -12   0-179.947 212.313   2
 -12 -12   2 3478.33 251.792   2
  12  -2 -12 2983.56 214.873   6
 -12 -12   3 235.372 205.463   2
  12  -3 -12 165.465 186.369   6
 -12 -12   4 4695.71 263.114   2
  12  -4 -12 4703.36 246.163   6
 -12 -12   5 109.276 201.184   2
  12 -12  -5 107.222 183.615   6
  12  -5 -12 178.454 196.271   6
 -12 -12   6 2155.98 197.665   2
  12 -12  -6 1808.70 223.709   6
  12 -12  -7 282.063 180.932   6
  12  -7 -12 442.896 216.519   6
  12 -12  -8 531.576 219.177   6
  12  -8 -12 494.876 212.335   6
  12 -12  -9 75.3750 184.350   6
  12 -12 -10 4439.69 287.677   6
  12 -10 -12 4395.72 281.968   6
 -12 -12  11 22.0520 77.2733  11
 -12 -11  12 159.683 81.1843  11
 -11 -12  12 146.484 77.6087  11
  12 -12 -11 5.95174 198.218   6
  12 -12 -11 152.626 82.1364   9
  12 -11 -12 124.066 85.0380   9
  11 -12 -12 124.662 76.4098   9
 -12 -12  12 3978.99 123.549  11
  12 -12 -12 4217.77 128.304   9
  13   0   0 240.388 131.901   7
   0   0 -13-108.209 116.795   5
  13  -1   1-36.1057 115.669   7
  -1  -1 -13-42.1969 113.595   5
   1   1 -13 48.7092 117.809   5
  13   0   1 1173.71 143.422   7
  13  -1   0 1351.00 150.785   7
  -1   0 -13 1104.45 140.341   5
   1   0 -13 1245.67 140.107   5
   0  -1 -13 1193.01 147.016   5
   0   1 -13 1004.66 135.561   5
  -1   1 -13-16.5347 108.785   5
   1  -1 -13 48.6639 130.024   5
  13  -2   2 188.783 143.800   7
  -2  -2 -13 173.295 147.373   5
  13  -2   1 1082.72 154.160   7
  13  -1   2 775.408 150.187   7
   1   2 -13 855.520 127.473   5
   2   1 -13 781.054 122.067   5
  -1  -2 -13 632.653 126.124   5
  -2  -1 -13 700.882 145.460   5
  13   0   2 321.553 126.615   7
  13  -2   0 313.927 129.666   7
  -2   0 -13 206.139 124.881   5
   2   0 -13 279.479 131.647   5
   0  -2 -13 301.947 142.433   5
   0   2 -13 272.664 107.900   5
  -2   1 -13 393.791 127.808   5
   1  -2 -13 140.239 141.086   5
  -1   2 -13 111.561 118.466   5
  -2   2 -13 159.271 108.915   5
  13  -3   3 211.328 164.326   7
  -3  -3 -13 292.550 144.339   5
 -13  -3  -3 315.170 148.237   2
  -3  -2 -13 5703.56 229.639   5
  -2  -3 -13 6479.38 244.993   5
 -13  -3  -2 6004.46 244.577   2
  13  -2   3 6067.34 254.210   7
  13  -3   2 6105.49 251.198   7
  -3  -1 -13 824.415 126.711   5
  -1  -3 -13 1228.18 160.587   5
  13  -1   3 1138.10 162.527   7
  13  -3   1 1180.94 160.535   7
  -3   0 -13 7471.65 266.404   5
   0  -3 -13 7877.59 263.513   5
  13   0   3 7617.88 268.279   7
  -3   1 -13 655.665 128.204   5
   1  -3 -13 1125.71 136.767   5
  -3   2 -13 6731.98 238.862   5
 -13  -3   2 6643.18 244.141   2
 -13  -3   3 288.732 131.820   2
  13  -4   4 410.846 168.881   7
  -4  -4 -13 257.055 166.635   5
 -13  -4  -4 249.511 149.390   2
  13  -3   4 3392.30 191.583   7
  13  -4   3 3038.16 193.301   7
 -13  -4  -3 3036.54 176.635   2
 -13  -3  -4 2998.16 179.088   2
  13  -4   2 370.667 162.135   7
  13  -2   4 351.278 144.206   7
  -4  -2 -13 584.116 159.838   5
 -13  -4  -2 314.419 137.695   2
  -4  -1 -13 3505.71 196.605   5
  13  -1   4 2744.75 184.292   7
  13  -4   1 3066.44 202.007   7
 -13  -4  -1 3217.33 194.580   2
  13   0   4 1300.63 154.359   7
  -4   0 -13 1165.57 141.891   5
 -13  -4   0 1678.55 165.591   2
  13   1   4 1988.33 159.808   7
  -4   1 -13 2423.45 167.214   5
  -4   2 -13 397.445 121.368   5
 -13  -4   2 508.610 146.542   2
  -4   3 -13 2703.62 165.779   5
 -13  -3   4 2455.73 158.096   2
 -13  -4   3 2757.47 184.603   2
 -13  -4   4 65.5841 148.837   2
  13  -5   5 306.116 184.835   7
  -5  -5 -13 287.884 151.900   5
 -13  -5  -5 288.571 140.213   2
  -4  -5 -13 4116.44 224.837   5
  -5  -4 -13 3962.77 206.702   5
 -13  -4  -5 3642.67 190.202   2
 -13  -5  -4 3598.18 192.013   2
  13  -4   5 4299.30 240.302   7
  13  -5   4 4246.62 232.951   7
  -3  -5 -13 2288.45 173.194   5
 -13  -5  -3 1990.65 168.588   2
 -13  -3  -5 2282.35 167.398   2
  13  -5   3 1934.08 200.592   7
  13  -3   5 1811.55 169.512   7
  -2  -5 -13 8001.27 280.281   5
  -5  -2 -13 6819.76 256.919   5
 -13  -5  -2 6479.51 253.307   2
  13  -2   5 7756.45 286.075   7
  13  -5   2 6601.14 266.104   7
  -5  -1 -13 5580.23 229.654   5
  -1  -5 -13 5849.89 246.860   5
 -13  -5  -1 5968.45 242.952   2
  13  -1   5 6305.52 262.954   7
  13  -5   1 6177.64 254.740   7
  -5   0 -13 12164.6 368.934   5
   0  -5 -13 12040.7 365.262   5
 -13  -5   0 11682.9 355.956   2
  13   0   5 12731.6 379.864   7
   1  -5 -13 5202.13 221.121   5
  -5   1 -13 4874.20 220.791   5
  13   1   5 5190.71 233.142   7
  -5   2 -13 9044.40 298.931   5
 -13  -5   2 8907.54 305.386   2
  -5   3 -13 1697.97 145.662   5
 -13  -5   3 1796.78 166.849   2
 -13  -3   5 1858.82 171.911   2
 -13  -4   5 4639.51 205.130   2
 -13  -5   4 5126.03 222.145   2
 -13  -5   5 196.527 145.430   2
  -6  -6 -13 97.9331 183.641   5
  13  -6   6 175.693 179.937   7
  -5  -6 -13 5081.64 243.658   5
  -6  -5 -13 5038.32 253.190   5
  13  -6   5 4964.88 264.287   7
 -13  -6  -5 4826.78 226.536   2
  13  -4   6 808.660 171.678   7
  -6  -4 -13 966.523 189.795   5
  -4  -6 -13 789.274 174.286   5
 -13  -6  -4 626.960 157.859   2
  -3  -6 -13 5324.15 241.510   5
 -13  -6  -3 5318.43 240.051   2
  13  -3   6 5267.21 253.613   7
  -2  -6 -13 3685.04 209.948   5
 -13  -6  -2 4175.33 219.441   2
  13  -2   6 3910.46 222.287   7
  -1  -6 -13 5720.20 255.915   5
  -6  -1 -13 6073.74 258.614   5
  13  -1   6 5999.91 261.170   7
 -13  -6  -1 5696.23 234.150   2
  13   0   6 6810.33 271.696   7
   0  -6 -13 6475.49 270.305   5
  -6   0 -13 6750.58 259.208   5
  13   1   6 4862.21 235.109   7
   1  -6 -13 4871.25 243.483   5
  -6   1 -13 5500.52 237.483   5
  -6   2 -13 4788.16 218.028   5
 -13  -6   2 4464.92 208.063   2
 -13  -2   6 4286.05 205.556   2
 -13  -6   3 3957.23 208.253   2
 -13  -3   6 4206.69 201.604   2
 -13  -6   4 309.960 144.091   2
 -13  -4   6 598.515 124.984   2
 -13  -6   5 5128.94 228.747   2
 -13  -5   6 5333.80 227.654   2
 -13  -6   6 220.520 126.854   2
  13  -7   7 479.473 174.509   7
  -7  -7 -13 308.724 187.325   5
  13  -6   7 4708.33 276.108   7
  13  -7   6 4598.02 254.666   7
  -7  -6 -13 4774.98 243.954   5
  -6  -7 -13 4682.70 250.889   5
  13  -7   5 222.850 193.136   7
  -5  -7 -13 285.800 171.963   5
  -7  -5 -13 478.520 171.757   5
 -13  -7  -5 299.059 147.588   2
  -4  -7 -13 2271.34 199.898   5
  -7  -4 -13 1851.38 184.172   5
 -13  -7  -4 1814.74 180.095   2
  13  -7   4 1963.33 214.673   7
  13  -4   7 1806.61 214.609   7
  -3  -7 -13 2504.96 184.655   5
  13  -7   3 2670.85 219.935   7
  13  -3   7 2272.73 201.162   7
 -13  -7  -3 2503.07 172.851   2
  -7 -13  -3 2409.60 199.629   2
  -7  -2 -13 525.456 156.039   5
  -2  -7 -13 335.130 174.072   5
 -13  -7  -2 468.227 142.304   2
  13  -7   2 660.026 178.119   7
  13  -2   7 378.792 189.668   7
  -7 -13  -2 635.766 178.686   2
  13  -1   7 5685.63 259.296   7
  -7  -1 -13 5550.12 241.488   5
  -1  -7 -13 5317.77 252.184   5
 -13  -7  -1 5674.51 250.339   2
  -7 -13  -1 5058.01 242.169   2
   0  -7 -13 1099.83 174.238   5
 -13  -7   0 1438.89 177.322   2
  13   0   7 1363.34 182.813   7
  -7 -13   0 1446.46 195.667   2
  13   1   7 4380.69 237.865   7
   1  -7 -13 4836.07 241.694   5
  -7 -13   1 4664.42 237.372   2
  -7 -13   2 681.303 148.077   2
 -13  -7   2 694.612 173.659   2
 -13  -7   3 2234.85 193.786   2
  -7 -13   3 2316.23 195.870   2
 -13  -7   4 1929.64 186.046   2
  -7 -13   4 1935.47 183.896   2
 -13  -7   5 452.184 162.946   2
 -13  -7   6 4650.28 228.618   2
  13  -8   8 355.420 216.081   7
   8  -8  13 111.584 189.062   7
  -7  -8 -13 2972.09 232.424   5
  13  -7   8 3377.74 229.440   7
  13  -8   7 3164.97 254.097   7
  -6  -8 -13 97.2982 174.256   5
  13  -8   6-68.3746 201.060   7
  13  -6   8 411.062 209.297   7
  -5  -8 -13 2413.36 210.420   5
  13  -8   5 2896.16 214.546   7
 -13  -8  -5 2381.11 196.504   2
  -4  -8 -13 763.350 181.669   5
  13  -8   4 636.925 184.947   7
  13  -4   8 692.962 206.560   7
  -8 -13  -4 735.730 187.320   2
 -13  -8  -4 749.891 179.385   2
  -3  -8 -13 907.076 164.353   5
 -13  -8  -3 1050.67 190.293   2
  13  -8   3 623.320 180.953   7
  13  -3   8 974.440 193.829   7
  -8 -13  -3 907.603 177.172   2
  13  -2   8 2950.84 231.856   7
  -2  -8 -13 2880.38 215.774   5
 -13  -8  -2 3152.17 216.187   2
  -8 -13  -2 2824.54 212.093   2
  -1  -8 -13 346.506 178.662   5
 -13  -8  -1 636.620 158.826   2
  13  -1   8 356.112 168.138   7
  -8 -13  -1 761.848 186.814   2
   0  -8 -13 5108.26 253.823   5
 -13  -8   0 5392.03 257.801   2
  -8 -13   0 5385.22 257.117   2
  13   0   8 5451.14 254.294   7
   1  -8 -13 737.235 181.223   5
  13  -1  -8 583.678 158.044   6
  13   1   8 695.900 186.412   7
  -8 -13   1 661.326 189.485   2
   2  -8 -13 2959.45 205.499   5
  13   2   8 2760.48 199.641   7
  13  -2  -8 3136.53 190.523   6
 -13  -8   2 3026.90 199.445   2
  -8 -13   2 3361.25 207.003   2
  13  -3  -8 544.141 149.729   6
  -8 -13   3 498.572 180.722   2
 -13  -8   3 736.556 175.445   2
  13  -4  -8 310.256 180.270   6
  -8 -13   4 375.423 175.804   2
 -13  -8   4 407.682 161.456   2
  13  -5  -8 1842.65 195.457   6
  -8 -13   5 2115.60 171.090   2
 -13  -8   5 1894.53 179.059   2
  13  -6  -8 140.967 195.890   6
 -13  -8   6 277.274 151.510   2
  13  -8  -7 2958.80 251.705   6
  13  -7  -8 3113.99 226.906   6
  13  -9   9 74.1178 185.744   7
  13  -9   8 938.388 230.071   7
   9  -8  13 654.124 202.889   7
  13  -8   9 635.162 202.564   7
  13  -9   7 721.421 214.904   7
   9  -7  13 772.592 208.087   7
  13  -7   9 1232.10 232.404   7
  13  -9   6 951.190 214.640   7
  13  -6   9 460.379 183.725   7
  -6  -9 -13 960.296 196.371   5
  -5  -9 -13 1573.26 185.748   5
 -13  -9  -5 1954.83 203.111   2
  13  -9   5 2172.40 218.084   7
  -9 -13  -5 1889.21 192.045   2
  -4  -9 -13 4833.99 248.791   5
  13  -9   4 4569.60 264.751   7
  13  -4   9 4368.79 259.795   7
  -9 -13  -4 4549.15 248.447   2
 -13  -9  -4 4174.86 221.121   2
  13  -3   9 3751.56 246.272   7
  -9 -13  -3 3876.93 241.675   2
 -13  -9  -3 4048.92 233.085   2
  -3  -9 -13 4192.86 234.311   5
  13  -2   9 2990.89 248.398   7
 -13  -9  -2 3283.19 208.269   2
  -9 -13  -2 3426.52 234.734   2
  -2  -9 -13 2689.86 199.324   5
  13  -1   9 6866.80 314.297   7
  -1  -9 -13 6962.82 288.405   5
 -13  -9  -1 7415.52 299.472   2
  -9 -13  -1 7488.02 286.944   2
   0  -9 -13 953.874 179.737   5
 -13  -9   0 1351.96 184.790   2
  13   0   9 987.866 202.296   7
  -9 -13   0 1350.64 206.422   2
   1  -9 -13 6980.68 279.881   5
  13   1   9 7299.91 309.673   7
   2  -9 -13 2515.15 215.864   5
  13   2   9 2741.66 222.271   7
  13  -2  -9 3230.50 212.360   6
  -9 -13   2 2662.83 201.528   2
 -13  -9   2 2837.32 227.658   2
  13  -3  -9 3840.59 233.080   6
  -9 -13   3 3957.62 230.204   2
 -13  -9   3 3681.63 226.402   2
  13  -4  -9 4761.67 258.617   6
 -13  -9   4 5372.82 245.510   2
  -9 -13   4 4740.72 246.807   2
  13  -5  -9 1273.00 197.180   6
  -9 -13   5 1271.72 166.081   2
 -13  -9   5 1412.19 198.967   2
  13  -6  -9 968.581 186.925   6
  -9 -13   6 1277.10 181.355   2
 -13  -9   6 1404.06 178.461   2
  13  -9  -7 659.033 193.597   6
  13  -7  -9 313.703 184.302   6
   8 -13  -9 657.426 180.080   6
   9 -13  -8 560.724 176.761   6
  13  -9  -8 718.971 197.350   6
   9 -13  -9-47.7009 186.309   6
  13  -9  -9 52.7515 222.511   6
  13 -10  10 333.373 193.965   7
  13  -9  10 971.837 227.633   7
  13 -10   9 501.119 190.517   7
  10  -9  13 420.991 186.545   7
  13  -8  10 2778.76 245.768   7
  13 -10   8 3143.04 252.710   7
  10  -8  13 2729.49 245.898   7
  13 -10   7 1807.51 232.726   7
  10  -7  13 1740.19 237.812   7
  13  -7  10 1225.14 220.366   7
  13  -6  10 1977.41 243.301   7
  13 -10   6 2159.81 238.968   7
  10  -6  13 1732.85 232.565   7
  13 -10   5 985.630 208.154   7
  13  -5  10 957.938 237.444   7
 -10 -13  -5 1063.93 198.229   2
 -13 -10  -5 1144.03 187.230   2
  13  -4  10 1065.13 233.404   7
 -10 -13  -4 1107.93 185.255   2
 -13 -10  -4 1214.12 202.653   2
  -3 -10 -13 1003.15 171.221   5
 -13 -10  -3 1166.92 187.462   2
  13  -3  10 873.733 214.841   7
 -10 -13  -3 1082.49 181.191   2
  13  -2  10 5244.24 286.976   7
  -2 -10 -13 5199.59 254.792   5
 -10 -13  -2 5262.99 251.177   2
 -13 -10  -2 5244.21 268.577   2
  -1 -10 -13 1007.84 191.567   5
 -13 -10  -1 1346.75 214.306   2
  13  -1  10 1019.25 186.499   7
 -10 -13  -1 1384.70 223.526   2
   0 -10 -13 12157.2 395.041   5
 -13 -10   0 12012.7 404.842   2
 -10 -13   0 12269.1 406.682   2
  13   0  10 12097.0 408.942   7
  13   1  10 1654.46 216.979   7
   1 -10 -13 1167.68 190.681   5
   2 -10 -13 5689.24 264.494   5
  13   2  10 5821.80 285.837   7
  13  -2 -10 5459.43 263.247   6
 -10 -13   2 5912.72 280.126   2
 -13 -10   2 5592.03 270.856   2
   3 -10 -13 1008.15 189.279   5
  13  -3 -10 1036.33 171.231   6
 -10 -13   3 1447.60 207.347   2
 -13 -10   3 1484.02 216.184   2
  10  -4 -13 923.133 184.944   6
  13  -4 -10 741.473 179.096   6
 -10 -13   4 918.754 195.776   2
 -13 -10   4 969.142 205.829   2
  10  -5 -13 1193.09 199.557   6
  13  -5 -10 1071.30 223.252   6
 -10 -13   5 1193.09 200.313   2
 -13 -10   5 1119.01 196.777   2
 -13 -10   6 2284.41 209.937   2
 -10 -13   6 1984.18 195.625   2
  13 -10  -6 1589.44 235.760   6
  13  -6 -10 1859.63 203.473   6
  13  -7 -10 1053.14 191.037   6
  13 -10  -7 1050.06 196.512   6
  10 -13  -7 1061.12 192.741   6
  13 -10  -8 2654.30 245.820   6
  13  -8 -10 2979.43 235.766   6
  10 -13  -8 2630.85 229.008   6
  13 -10  -9 385.697 226.888   6
  13  -9 -10 681.889 243.047   6
  10 -13  -9 427.950 175.414   6
  13 -10 -10-143.684 201.724   6
  10 -13 -10-163.455 213.252   6
 -13 -11 -11 94.6017 86.1446  10
  11 -13  11 85.5211 64.7158   8
  11 -11  13 142.987 68.5434   8
  13 -10  11 160.793 191.448   7
  13 -11   9 722.789 218.691   7
  11  -9  13 384.056 191.197   7
  13  -9  11 347.638 218.102   7
  13 -11   8 896.309 194.222   7
  11  -8  13 807.399 226.572   7
  13  -8  11 486.751 213.682   7
  13 -11   7 727.865 214.559   7
  11  -7  13 386.686 219.846   7
  13  -7  11 449.374 207.793   7
  13 -11   6 528.061 209.222   7
  11  -6  13 790.214 198.790   7
  13  -6  11 314.035 227.160   7
 -11 -13  -5 1970.69 224.645   2
  11  -5  13 1678.20 245.514   7
  13  -5  11 1272.23 249.208   7
 -13 -11  -5 1553.29 187.779   2
  11  -4  13 3503.54 264.731   7
 -13 -11  -4 3769.31 250.762   2
 -11 -13  -4 3274.06 216.921   2
  13  -3  11 1407.22 231.785   7
 -13 -11  -3 1640.99 221.623   2
 -11 -13  -3 1478.06 211.071   2
  13  -2  11 1617.47 229.918   7
 -13 -11  -2 1658.27 232.875   2
 -11 -13  -2 1509.45 197.684   2
  13  -1  11 1836.49 210.335   7
 -11 -13  -1 2094.75 244.335   2
 -13 -11  -1 1953.66 215.801   2
  13   0  11-75.0868 177.571   7
 -13 -11   0 53.8396 216.715   2
 -11 -13   0 190.552 204.634   2
  13   1  11 1800.45 221.998   7
 -13 -11   2 1375.97 196.294   2
  13  -2 -11 1457.07 180.757   6
  13   2  11 1603.50 223.222   7
 -11 -13   2 1753.84 235.534   2
   2 -11 -13 1430.48 202.641   5
 -13 -11   3 1486.39 218.932   2
  13  -3 -11 1591.15 213.980   6
 -11 -13   3 1271.05 208.749   2
   3 -11 -13 1194.48 188.238   5
  11  -3 -13 1276.26 205.744   6
  11  -4 -13 4132.14 232.846   6
  13  -4 -11 4083.91 262.014   6
 -13 -11   4 3991.73 256.015   2
 -11 -13   4 3727.20 240.869   2
 -13 -11   5 1470.13 189.538   2
  11  -5 -13 1295.27 187.933   6
 -11 -13   5 1581.36 216.195   2
  13 -11  -5 1649.41 225.404   6
  13  -5 -11 1744.51 229.331   6
  11  -6 -13 1272.12 225.490   6
 -13 -11   6 1461.73 207.507   2
 -11 -13   6 1182.47 173.969   2
  13  -6 -11 1081.03 213.028   6
  11 -13  -6 1119.09 181.183   6
  13 -11  -6 1326.09 209.413   6
  13  -7 -11 434.299 188.774   6
  11 -13  -7 404.967 201.269   6
  13 -11  -7 565.351 220.024   6
  11  -7 -13 200.777 215.603   6
  13 -11  -8 194.986 203.630   6
  11 -13  -8 225.900 198.810   6
  13  -8 -11 539.085 188.410   6
  11 -13  -9 491.014 185.093   6
  13 -11  -9 279.491 232.727   6
  13 -10 -11 169.786 219.791   6
  13 -11 -10 408.587 193.337   6
  11 -13 -10 190.174 218.602   6
  13 -11 -11 41.6922 80.3908   9
  11 -13 -11 61.2168 86.7840   9
 -13 -11  11-102.456 76.7810  12
 -11 -11  13 42.7477 76.4646  11
 -13 -11  11 157.882 79.2064  11
  12 -13  12 64.3981 77.9853   8
  12 -12  13 61.0691 80.4101   8
  11 -12  13 283.037 68.2528   8
  11 -13  12 389.657 75.9799   8
  12 -11  13 308.836 81.5614   8
  10 -12  13 569.450 69.3400   8
  10 -13  12 616.694 72.7582   8
 -13 -10 -12 506.092 85.7945  10
  12  -9  13 267.576 215.202   7
  13  -9  12 392.465 191.648   7
  13  -8  12 2634.38 251.493   7
  12  -8  13 3172.13 263.958   7
  12  -7  13 413.286 213.499   7
  13  -7  12 332.963 237.910   7
  12  -6  13 1010.06 230.679   7
  13  -6  12 853.293 207.890   7
  13  -5  12 290.204 222.884   7
  12  -5  13 438.682 206.288   7
 -13 -12  -5 107.166 176.161   2
 -12 -13  -5-166.920 212.379   2
  12  -4  13 494.072 221.633   7
 -13 -12  -4 329.200 217.743   2
 -12 -13  -4 158.658 193.398   2
  13  -3  12 262.994 193.655   7
 -12 -13  -3 360.305 182.336   2
 -13 -12  -3 226.405 223.046   2
  12  -2  13 2571.60 256.272   7
  13  -2  12 2565.76 265.058   7
 -13 -12  -2 2217.38 246.871   2
 -12 -13  -2 2328.05 231.659   2
  13  -1  12 1024.00 234.999   7
 -13 -12  -1 1038.11 197.272   2
 -12 -13  -1 1284.66 239.501   2
  13   0  12 5765.74 302.512   7
 -13 -12   0 5109.73 284.623   2
 -12 -13   0 4930.65 295.687   2
  13   1  12 919.517 238.051   7
 -13 -12   2 2160.64 232.428   2
 -12 -13   2 2131.91 235.319   2
  13   2  12 2013.92 222.597   7
  12  -3 -13 571.765 204.420   6
 -12 -13   3 676.059 221.613   2
 -13 -12   3 313.206 202.741   2
  13  -3 -12 366.130 175.474   6
  12  -4 -13 362.334 211.327   6
 -13 -12   4 200.506 203.396   2
 -12 -13   4 544.802 212.843   2
  13  -4 -12 265.901 199.570   6
  12  -5 -13-39.1479 218.229   6
 -13 -12   5-59.6452 169.554   2
 -12 -13   5 171.526 205.799   2
  13  -5 -12 207.561 188.581   6
  13 -12  -5 11.2437 179.342   6
  12 -13  -5 243.835 186.628   6
  12  -6 -13 867.635 231.731   6
 -13 -12   6 952.354 200.678   2
 -12 -13   6 881.906 190.516   2
  12 -13  -6 433.931 212.760   6
  13  -6 -12 981.894 229.787   6
  13 -12  -6 304.784 220.452   6
  13 -12  -7 327.147 201.636   6
  12 -13  -7 178.937 192.805   6
  13  -7 -12 195.144 190.730   6
  12  -7 -13 353.467 223.130   6
  13  -8 -12 2601.39 234.231   6
  13 -12  -8 2931.65 244.590   6
  12 -13  -8 2255.22 219.984   6
  13 -12  -9 407.812 224.874   6
  12 -13  -9 385.957 219.502   6
  12 -10 -13 620.517 79.0513   9
  13 -10 -12 627.388 78.1507   9
  12 -13 -10 624.981 83.3528   9
  10 -13 -12 596.813 80.0882   9
  13 -12 -10 670.464 78.3208   9
 -13 -12  10 577.248 72.7163  11
 -10 -12  13 494.577 70.6884  11
 -12 -10  13 545.156 72.2595  11
 -13 -10  12 668.503 74.7152  11
  13 -10 -12 458.095 245.755   6
  12 -13 -10 530.174 202.731   6
 -11 -13  12 444.943 77.7791  11
 -13 -11  12-122.668 75.7693  12
 -13 -12  11-146.088 76.1133  12
 -13 -12  11 271.785 70.8121  11
 -12 -13  11 304.642 78.2443  11
 -13 -11  12 319.143 72.0797  11
 -11 -12  13 334.075 77.2172  11
 -12 -11  13 339.096 76.9766  11
  13 -12 -11 172.645 225.951   6
  11 -13 -12 401.602 85.4111   9
  13 -11 -12 321.140 77.0842   9
  11 -12 -13 420.210 88.7703   9
  12 -13 -11 418.906 86.7250   9
  13 -12 -11 289.048 77.6138   9
  12 -11 -13 299.815 84.1545   9
  13 -12 -12-15.7953 86.1668   9
  12 -12 -13 57.0970 83.0055   9
  12 -13 -12 21.2907 84.5870   9
 -12 -12  13-16.4074 78.0297  11
 -13 -12  12 155.325 80.5074  11
 -12 -13  12 124.470 72.7252  11
  13 -13  13 123.035 71.9766   8
  13 -13  12 571.282 77.2532   8
  12 -13  13 603.653 69.2792   8
  13 -12  13 659.039 74.9085   8
  13 -11  13 37.3214 69.0929   8
  11 -13  13 95.6775 77.5850   8
  10 -13  13-33.3406 76.6898   8
 -13  10  13 19.9411 72.0475   3
   9 -13  13-26.6270 78.2826   8
 -13   9  13 143.421 82.4342   3
 -13 -13  -9 30.6702 82.3545  10
   8 -13  13 431.174 71.6402   8
  13  -8  13 870.896 231.278   7
 -13  -8 -13 713.222 83.6671  10
 -13 -13  -8 436.666 84.6891  10
 -13   8  13 569.070 79.8732   3
  13  -7  13 59.1384 193.435   7
  13  -6  13 1329.66 253.770   7
 -13 -13  -5 99.1580 186.262   2
  13  -5  13 227.988 239.229   7
 -13 -13  -4 2111.54 238.391   2
 -13 -13  -3-85.5643 230.681   2
  13  -3  13-60.7690 238.480   7
 -13 -13  -2 230.318 229.971   2
  13  -2  13 454.064 218.449   7
 -13 -13  -1 64.2753 209.867   2
  13  -1  13 61.0025 216.218   7
 -13 -13   0 1634.97 216.295   2
  13   0  13 1688.58 237.750   7
  13   1  13 40.2340 198.257   7
 -13 -13   2 629.692 228.481   2
  13   2  13 711.031 241.851   7
  13  -3 -13 37.6189 203.899   6
 -13 -13   3-15.7427 189.833   2
  13   3  13-131.284 230.432   7
 -13 -13   4 2380.50 226.343   2
  13  -4 -13 2236.93 216.432   6
  13 -13  -4 2028.19 204.686   6
  13  -5 -13 28.6817 188.339   6
 -13 -13   5-30.5578 180.483   2
  13 -13  -5 140.704 180.716   6
  13  -6 -13 1583.07 243.828   6
 -13 -13   6 1330.13 211.973   2
  13 -13  -6 1240.59 221.310   6
  13 -13  -7-345.085 220.070   6
  13  -7 -13 29.9421 186.507   6
  13 -13  -8 89.1705 84.1935   9
 -13 -13   8-161.612 77.1896  12
  13 -13  -8-109.549 191.938   6
  13  -8 -13 157.532 219.955   6
  13 -13  -9-273.190 198.982   6
  13  -9 -13 37.7419 82.2361   9
  13 -13  -9-0.60131 84.5819   9
 -13  -9  13 8.07522 74.0603  11
 -13  -9  13-149.920 79.0473  12
 -13 -13   9 66.1332 83.6560  12
  13 -10 -13 118.831 84.1679   9
  13 -13 -10 88.7568 82.7411   9
  10 -13 -13 112.047 89.6118   9
 -13 -10  13 50.9926 82.7039  11
 -13 -13  10-67.9016 80.6695  12
 -13 -10  13 22.5669 79.5946  12
 -10 -13  13 27.6759 67.1288  11
  13 -11 -13 0.57916 81.7640   9
  11 -13 -13 124.326 86.3857   9
  13 -13 -11 53.9072 87.0044   9
 -11 -13  13 40.5807 68.7857  11
 -13 -11  13 83.9580 79.5306  11
  12 -13 -13 417.350 87.1808   9
  13 -13 -12 488.470 78.9096   9
  13 -12 -13 476.423 79.0297   9
 -13 -12  13 527.403 72.8564  11
 -12 -13  13 472.394 78.1872  11
  13 -13 -13 29.0943 81.6874   9
 -13 -13  13 73.1536 70.6795  11
   0   0 -14 28250.1 717.383   5
  -1  -1 -14 25224.9 651.069   5
   1   1 -14 25334.7 646.281   5
  14  -1   1 25190.2 662.088   7
  -1   0 -14 4580.54 211.157   5
   1   0 -14 4064.37 207.585   5
   0   1 -14 3084.72 178.344   5
   0  -1 -14 2607.27 179.979   5
  14   0   1 3537.61 201.295   7
   1  -1 -14 27659.3 710.289   5
  -1   1 -14 28223.3 706.301   5
  -2  -2 -14 14462.3 422.882   5
  14  -2   2 14408.7 431.789   7
   2   1 -14 2748.56 168.624   5
  -2  -1 -14 2036.80 177.362   5
  -1  -2 -14 2885.54 181.682   5
  14  -1   2 2170.34 194.516   7
  14  -2   1 2308.44 180.298   7
   2   0 -14 26670.0 671.793   5
   0  -2 -14 25254.3 671.066   5
  -2   0 -14 26676.2 673.025   5
   0   2 -14 25671.0 661.450   5
  14   0   2 27132.4 689.721   7
   2  -1 -14 2998.49 198.011   5
  -1   2 -14 3553.99 181.483   5
   1  -2 -14 3244.16 198.882   5
  -2   1 -14 3135.99 186.770   5
  -2   2 -14 13536.5 400.689   5
   2  -2 -14 14801.7 418.431   5
  -3  -3 -14 6177.95 260.290   5
 -14  -3  -3 6149.39 256.264   2
  14  -3   3 6369.88 278.053   7
  -2  -3 -14 1618.94 186.885   5
  -3  -2 -14 2270.43 195.748   5
 -14  -3  -2 1827.71 183.870   2
  14  -2   3 1775.15 192.467   7
  14  -3   2 1574.57 164.517   7
   3   1 -14 12247.5 363.269   5
  -3  -1 -14 12481.4 375.795   5
  -1  -3 -14 11985.7 377.742   5
 -14  -3  -1 11933.9 371.684   2
  14  -1   3 11411.1 374.123   7
  14  -3   1 11802.2 379.407   7
   0  -3 -14 1462.42 188.648   5
  -3   0 -14 1417.09 167.836   5
 -14  -3   0 1810.08 162.515   2
  14   0   3 1445.01 177.097   7
  -3   1 -14 13024.8 386.455   5
   1  -3 -14 12772.5 398.456   5
  -3   2 -14 1492.54 162.140   5
   2  -3 -14 1483.81 162.600   5
 -14  -3   2 1909.42 193.955   2
 -14  -3   3 4840.10 227.883   2
  14  -4   4 4401.51 249.660   7
 -14  -4  -4 4159.61 221.645   2
  14  -3   4 1200.36 187.186   7
  14  -4   3 804.142 178.117   7
  -4  -3 -14 986.029 160.716   5
 -14  -4  -3 801.516 161.934   2
 -14  -3  -4 643.201 138.018   2
  -4  -2 -14 3922.88 219.516   5
 -14  -4  -2 3660.94 212.102   2
  14  -2   4 3930.45 223.462   7
  14  -4   2 3767.78 219.104   7
  -4  -1 -14 2848.59 198.515   5
 -14  -4  -1 2550.57 200.981   2
  14  -1   4 2259.82 202.651   7
  14  -4   1 2215.57 194.407   7
   0  -4 -14 5214.23 247.266   5
  -4   0 -14 5443.33 229.818   5
 -14  -4   0 5961.30 253.737   2
  14   0   4 5041.47 236.130   7
   1  -4 -14 2572.68 204.140   5
  -4   1 -14 2359.27 178.269   5
   2  -4 -14 3418.48 202.679   5
 -14  -4   2 3717.47 207.847   2
 -14  -4   3 867.416 177.398   2
 -14  -3   4 690.169 161.503   2
 -14  -4   4 4490.72 228.085   2
  -5  -5 -14 3313.62 213.486   5
  14  -5   5 3233.70 242.797   7
 -14  -5  -5 3239.28 207.938   2
  14  -4   5 943.062 197.577   7
  14  -5   4 1138.03 188.052   7
  -5  -4 -14 1113.87 175.908   5
  -4  -5 -14 1218.14 196.348   5
 -14  -5  -4 1000.08 167.303   2
 -14  -4  -5 967.255 144.414   2
  -3  -5 -14 3232.28 222.419   5
  -5  -3 -14 3420.46 226.231   5
  14  -3   5 3172.93 230.846   7
  14  -5   3 3024.67 218.629   7
 -14  -5  -3 3163.90 214.503   2
 -14  -3  -5 2648.74 194.741   2
  14  -5   2 1040.17 196.315   7
  14  -2   5 825.756 178.721   7
  -5  -2 -14 1163.78 163.488   5
  -2  -5 -14 956.360 188.011   5
 -14  -2  -5 934.264 160.501   2
 -14  -5  -2 808.267 176.113   2
  -1  -5 -14 3156.00 213.974   5
  -5  -1 -14 2777.53 187.497   5
  14  -1   5 2348.62 209.590   7
 -14  -5  -1 2867.04 188.550   2
  14   0   5 288.969 168.231   7
  -5   0 -14 167.761 166.689   5
   0  -5 -14 278.206 177.858   5
 -14  -5   0 457.296 164.827   2
  14   1   5 2361.22 197.534   7
  -5   1 -14 2119.54 167.791   5
  -5   2 -14 1437.15 162.324   5
 -14  -2   5 1481.52 172.369   2
 -14  -5   2 1235.11 179.584   2
 -14  -5   3 2613.40 180.297   2
 -14  -3   5 2616.25 193.792   2
  -5   3 -14 2589.32 185.294   5
 -14  -5   4 1831.33 164.674   2
 -14  -4   5 1704.69 161.255   2
 -14  -5   5 2506.69 197.823   2
  -6  -6 -14 3397.78 245.206   5
  -6  -5 -14 2353.95 218.065   5
  -5  -6 -14 2580.98 216.956   5
  14  -5   6 2150.86 210.440   7
 -14  -6  -5 2276.57 191.192   2
  14  -4   6 696.346 193.439   7
  -6  -4 -14 914.328 196.676   5
  -4  -6 -14 612.552 169.336   5
 -14  -6  -4 584.170 165.067   2
  -3  -6 -14 3055.77 215.928   5
  14  -3   6 2984.77 234.274   7
 -14  -6  -3 3255.80 192.874   2
  14  -6   2 562.231 172.429   7
  14  -2   6 380.185 193.980   7
  -6  -2 -14 404.812 186.361   5
  -2  -6 -14 466.528 185.845   5
 -14  -6  -2 330.520 150.361   2
  -1  -6 -14 3081.62 219.061   5
  -6  -1 -14 3091.66 216.135   5
 -14  -6  -1 3535.67 222.579   2
  14  -1   6 3121.61 227.261   7
  -6   0 -14 1450.40 189.111   5
   0  -6 -14 1443.64 188.740   5
 -14  -6   0 1697.37 190.868   2
  14   0   6 1371.75 180.833   7
  14   1   6 2813.84 212.532   7
   1  -6 -14 2834.35 203.460   5
  -6   1 -14 2905.91 200.876   5
   2  -6 -14 1029.80 194.893   5
 -14  -2   6 802.724 144.873   2
 -14  -6   2 842.986 188.827   2
 -14  -6   3 2473.50 205.838   2
 -14  -3   6 2339.45 189.073   2
 -14  -6   4 768.347 184.504   2
 -14  -4   6 802.638 161.887   2
 -14  -5   6 1893.69 166.767   2
 -14  -6   5 1995.14 190.322   2
 -14  -6   6 3187.51 209.314   2
  -7  -7 -14 1770.83 224.364   5
  14  -7   7 1760.31 217.964   7
  -6  -7 -14 2186.40 207.103   5
  -7  -6 -14 2449.25 228.285   5
  14  -6   7 1908.60 240.109   7
  14  -7   6 1887.09 206.844   7
  -5  -7 -14 2199.53 210.293   5
  -7  -5 -14 2470.64 236.052   5
 -14  -7  -5 2026.57 179.072   2
  14  -7   5 2167.44 233.585   7
  14  -5   7 1936.47 237.896   7
  -4  -7 -14 3693.84 242.144   5
  -7  -4 -14 3954.97 252.837   5
 -14  -7  -4 3720.34 229.048   2
  14  -4   7 3259.30 230.147   7
  14  -7   4 3225.21 221.517   7
  -3  -7 -14 3109.29 227.468   5
 -14  -7  -3 3085.68 217.261   2
  14  -3   7 2901.07 243.431   7
  14  -7   3 2835.32 228.526   7
  -2  -7 -14 2020.38 208.128   5
  -7  -2 -14 2482.23 226.468   5
 -14  -7  -2 2511.49 216.565   2
  14  -2   7 2131.55 208.515   7
  -1  -7 -14 2518.23 219.002   5
  -7  -1 -14 2781.62 225.405   5
  14  -1   7 2472.87 206.273   7
 -14  -7  -1 2745.69 203.801   2
  14   0   7 504.441 185.585   7
   0  -7 -14 498.054 188.682   5
 -14  -7   0 565.499 193.983   2
   1  -7 -14 1092.75 180.633   5
  14   1   7 1297.91 180.732   7
   2  -7 -14 1626.67 213.183   5
 -14  -7   2 1683.53 179.334   2
 -14  -7   3 2422.95 209.408   2
 -14  -7   4 4677.73 244.996   2
 -14  -7   5 1453.71 167.191   2
 -14  -7   6 2094.06 197.768   2
  14  -7  -7 1784.63 220.789   6
   8  -8  14 5399.54 284.575   7
  14  -8   8 5597.33 311.709   7
  14  -7   8 522.022 197.957   7
  14  -8   7 401.794 216.035   7
  -7  -8 -14 391.707 203.516   5
  14  -8   6 3234.43 262.069   7
  14  -6   8 3161.13 250.519   7
  -6  -8 -14 3312.87 223.144   5
  14  -8   5 489.428 214.986   7
  -5  -8 -14 560.210 198.342   5
 -14  -8  -5 492.638 190.015   2
  14  -8   4 416.040 195.125   7
  14  -4   8 369.172 181.490   7
  -4  -8 -14 531.348 202.512   5
 -14  -8  -4 429.500 176.825   2
  -3  -8 -14 1965.34 213.910   5
  14  -3   8 1820.50 238.118   7
 -14  -8  -3 2186.54 214.162   2
 -14  -8  -2 1325.50 202.872   2
  14  -2   8 1359.22 201.842   7
  -2  -8 -14 1750.48 205.031   5
  14  -1   8 2608.30 210.697   7
  -1  -8 -14 2920.83 227.876   5
 -14  -8  -1 2558.64 217.034   2
  -8 -14  -1 2894.66 235.296   2
   0  -8 -14 878.736 198.802   5
  14   0   8 695.918 195.372   7
  -8 -14   0 928.049 212.717   2
 -14  -8   0 462.597 175.590   2
  14   1   8 1828.30 209.715   7
   1  -8 -14 1761.47 190.555   5
   2  -8 -14 1767.25 217.590   5
  14  -2  -8 1549.60 193.286   6
  -8 -14   2 1511.46 204.406   2
 -14  -8   2 1423.52 210.765   2
  14  -3  -8 1174.20 192.474   6
   3  -8 -14 1638.01 215.943   5
 -14  -8   3 1127.85 172.888   2
  14  -4  -8 576.413 205.705   6
 -14  -8   4 765.259 164.870   2
  14  -5  -8 204.194 183.378   6
 -14  -8   5 295.943 184.163   2
 -14  -8   6 2848.70 193.440   2
  14  -6  -8 2635.45 213.251   6
  14  -7  -8 618.367 197.052   6
  14  -9   9 140.152 218.183   7
  14  -8   9 495.215 197.548   7
  14  -9   8 584.214 220.366   7
   9  -8  14 651.955 215.848   7
  14  -9   7 234.651 187.527   7
   9  -7  14 424.972 202.441   7
  14  -7   9 603.603 239.420   7
  14  -6   9 2691.01 256.503   7
  14  -9   6 2527.29 225.311   7
  -6  -9 -14 2746.00 227.253   5
  14  -9   5 173.082 196.173   7
  -5  -9 -14 134.855 177.441   5
 -14  -9  -5 399.429 195.081   2
  -4  -9 -14 4929.07 259.293   5
  14  -4   9 4853.99 293.377   7
  14  -9   4 4848.23 282.284   7
 -14  -9  -4 4736.69 238.895   2
  -3  -9 -14 458.817 196.368   5
  14  -3   9 98.7174 197.926   7
  -9 -14  -3 100.630 205.449   2
 -14  -9  -3 219.285 180.776   2
  -2  -9 -14 1308.47 205.990   5
  14  -2   9 1034.95 229.802   7
  -9 -14  -2 1386.03 220.401   2
 -14  -9  -2 1304.96 187.079   2
  -1  -9 -14 298.442 190.747   5
  14  -1   9 48.3908 209.556   7
  -9 -14  -1 294.793 178.505   2
 -14  -9  -1 166.401 208.387   2
   0  -9 -14 100.264 165.936   5
  14   0   9-119.128 211.291   7
  -9 -14   0 132.460 210.803   2
 -14  -9   0 52.1848 198.407   2
  14   1   9-29.3459 172.358   7
   1  -9 -14 176.504 192.395   5
   2  -9 -14 1835.04 196.960   5
  14  -2  -9 1838.68 190.059   6
  -9 -14   2 1921.76 198.161   2
 -14  -9   2 2133.98 229.351   2
   3  -9 -14 783.224 195.978   5
  14  -3  -9 826.532 195.204   6
  -9 -14   3 973.043 208.807   2
 -14  -9   3 743.772 198.912   2
  14  -4  -9 5103.38 263.735   6
  -9 -14   4 5200.03 266.241   2
 -14  -9   4 5343.84 264.578   2
  14  -5  -9 248.617 208.837   6
 -14  -9   5 261.187 197.835   2
  14  -6  -9 2116.53 216.242   6
 -14  -9   6 2060.51 194.256   2
  14  -9  -7 452.117 226.358   6
  14  -7  -9 211.505 186.066   6
  14  -8  -9 517.616 232.139   6
  14  -9  -8 402.180 189.921   6
  14  -9  -9 212.320 225.671   6
  14 -10  10 3038.02 263.859   7
  14  -9  10 250.529 232.686   7
  14 -10   9 293.480 217.111   7
  14  -8  10 371.195 214.109   7
  14 -10   8 497.196 204.357   7
  10  -8  14 416.276 223.639   7
  14 -10   7 1039.00 216.008   7
  10  -7  14 1457.23 234.831   7
  14  -7  10 1622.15 244.691   7
  14 -10   6 2135.34 238.221   7
  10  -6  14 2203.43 253.855   7
  14  -6  10 1600.98 215.025   7
  14 -10   5 2787.98 227.499   7
 -14 -10  -5 2691.62 230.139   2
  -4 -10 -14 2827.29 227.371   5
  14  -4  10 2993.57 244.750   7
 -10 -14  -4 2498.83 213.888   2
 -14 -10  -4 2503.24 226.297   2
  -3 -10 -14 2942.35 220.561   5
  14  -3  10 2521.44 262.622   7
 -14 -10  -3 2893.94 214.726   2
 -10 -14  -3 2825.33 218.859   2
  -2 -10 -14 1319.10 198.606   5
  14  -2  10 1100.12 214.347   7
 -10 -14  -2 1306.43 200.289   2
 -14 -10  -2 1409.11 212.529   2
  -1 -10 -14 1723.77 212.206   5
  14  -1  10 1381.97 203.584   7
 -10 -14  -1 1899.38 240.052   2
 -14 -10  -1 2232.42 241.919   2
   0 -10 -14 138.263 199.673   5
  14   0  10 568.746 193.894   7
 -10 -14   0 216.112 214.550   2
 -14 -10   0 362.372 223.316   2
  14   1  10 1919.34 234.812   7
   1 -10 -14 1172.31 188.661   5
   2 -10 -14 794.839 207.787   5
  14  -2 -10 783.555 199.144   6
  14   2  10 990.863 205.857   7
 -10 -14   2 765.968 220.509   2
 -14 -10   2 922.248 209.779   2
   3 -10 -14 3206.61 245.536   5
 -10 -14   3 3207.17 247.743   2
 -14 -10   3 3398.55 253.877   2
  14  -3 -10 3210.31 227.660   6
   4 -10 -14 1926.28 226.155   5
 -10 -14   4 2211.30 227.978   2
 -14 -10   4 2568.77 237.496   2
  14  -4 -10 1758.69 220.684   6
 -10 -14   5 3958.54 253.861   2
 -14 -10   5 4231.32 255.798   2
  14  -5 -10 4361.99 278.789   6
  14  -6 -10 1322.48 217.924   6
  14 -10  -6 1272.47 222.680   6
 -14 -10   6 1229.78 200.610   2
  14  -7 -10 1627.05 208.503   6
  14 -10  -7 1682.01 237.798   6
  14 -10  -8 700.746 207.649   6
  14  -8 -10 548.003 217.251   6
  14 -10  -9 889.387 246.739   6
  14 -10 -10 2703.26 240.924   6
 -14 -11 -11 306.958 87.9238  10
  11 -11  14 272.751 82.7108   8
  11 -14  11 235.195 66.1838   8
  10 -14  11 1166.45 73.0125   8
  10 -11  14 1258.60 86.0892   8
 -14 -11 -10 1173.51 92.9057  10
 -14 -10 -11 1195.60 82.8559  10
  14 -10  11 1122.60 228.306   7
  14 -11  10 1320.88 203.387   7
   9 -11  14 256.057 80.0621   8
  11  -9  14 63.5118 67.3535   8
  14  -9  11-205.504 228.736   7
  14 -11   9 139.733 187.488   7
  11  -9  14 274.526 208.640   7
 -14 -11  -9 124.039 84.5975  10
 -14  -9 -11 160.444 73.1539  10
  14 -11   8 1828.24 237.841   7
  11  -8  14 1776.19 242.872   7
  14  -8  11 1538.35 223.011   7
  14 -11   7 206.697 190.381   7
  11  -7  14 408.150 233.340   7
  14  -7  11 549.853 238.939   7
  11  -6  14 2221.41 244.526   7
  14  -6  11 2045.32 227.753   7
 -11 -14  -5 390.191 216.317   2
  11  -5  14 690.278 232.733   7
 -14 -11  -5 716.336 196.787   2
  14  -4  11 2591.78 248.858   7
  11  -4  14 2393.55 241.348   7
 -14 -11  -4 2616.33 243.155   2
 -11 -14  -4 2161.33 210.099   2
 -11 -14  -3 268.734 207.077   2
 -14 -11  -3 160.739 204.150   2
  14  -3  11 522.650 242.088   7
 -11 -14  -2 1549.38 203.013   2
  14  -2  11 1403.99 223.459   7
 -11 -14  -1 937.360 237.928   2
  14  -1  11 732.103 197.814   7
 -14 -11  -1 1052.76 220.786   2
 -11 -14   0 4204.96 268.301   2
 -14 -11   0 4947.62 288.510   2
  14   0  11 4249.09 262.687   7
  14   1  11 1073.92 234.971   7
   1 -11 -14 960.619 183.583   5
 -14 -11   2 1664.54 204.831   2
  14   2  11 1116.16 200.394   7
 -11 -14   2 1600.06 237.801   2
   2 -11 -14 1327.41 207.231   5
 -14 -11   3 240.073 218.975   2
  14  -3 -11 211.724 203.361   6
 -11 -14   3 523.086 211.200   2
   3 -11 -14 425.978 201.941   5
 -14 -11   4 2346.68 242.559   2
  14  -4 -11 2550.85 246.540   6
 -11 -14   4 2655.52 229.702   2
   4 -11 -14 2189.55 224.857   5
 -14 -11   5 620.850 200.676   2
   5 -11 -14 597.849 199.777   5
  14 -11  -5 513.462 221.223   6
  14  -5 -11 589.127 212.404   6
 -11 -14   5 747.905 214.329   2
  14  -6 -11 1211.44 227.549   6
  14 -11  -6 1232.39 198.100   6
 -14 -11   6 1378.98 213.152   2
  14  -7 -11 190.648 192.770   6
  14 -11  -7 325.435 229.848   6
  14 -11  -8 1285.30 208.049   6
  14  -8 -11 1332.38 213.095   6
  14 -11  -9 411.353 233.643   6
   9 -14 -11 231.779 75.3062   9
  14 -11  -9 170.447 81.5821   9
  11 -14  -9 132.782 80.4458   9
 -14 -11   9-166.308 83.4408  12
  -9 -11  14 158.494 70.8619  11
 -11  -9  14 228.100 82.5823  11
 -14  -9  11 72.1847 88.2676  12
 -14  -9  11 166.526 83.7347  11
  14 -10 -11 952.079 225.138   6
  14 -11 -10 1253.28 205.073   6
 -10 -11  14 1156.50 84.0264  11
 -14 -10  11 1308.65 88.0553  11
 -11 -10  14 1353.82 90.5826  11
  14 -11 -10 1334.63 87.6004   9
  11 -14 -10 1381.45 85.8974   9
  14 -10 -11 1200.09 89.6150   9
 -14 -11  11-65.3588 83.1416  12
 -14 -11  11 233.128 77.6440  11
 -11 -11  14 303.844 81.3063  11
  11 -14 -11 273.623 83.1505   9
  14 -11 -11 375.640 83.7548   9
  14 -11 -11 102.516 231.829   6
 -12  12  14 728.372 83.2543   3
  12 -12  14 812.532 71.5929   8
  12 -14  12 812.647 77.8311   8
 -12  11  14 1148.56 85.1421   3
  11 -12  14 1315.65 88.4920   8
  12 -11  14 1342.22 82.1384   8
  11 -14  12 1415.51 76.0672   8
  12 -14  11 1415.03 83.3477   8
 -14 -10 -12 2685.67 109.636  10
 -12  10  14 2374.75 103.485   3
  10 -12  14 2730.84 103.576   8
  10 -14  12 2602.05 93.6748   8
 -14  -9 -12 624.453 86.4421  10
  14  -9  12 757.993 198.740   7
  12  -9  14 874.462 222.048   7
 -12   9  14 560.832 92.9963   3
   9 -14  12 574.172 67.9200   8
   9 -12  14 693.411 81.9820   8
  12  -9  14 542.247 85.7193   8
 -14 -12  -8 155.976 85.2933  10
 -14  -8 -12 355.953 83.3920  10
 -12 -14  -8 108.639 82.8656  10
   8 -12  14 323.289 79.0760   8
  12  -8  14 289.467 73.5769   8
   8 -14  12 273.905 75.9050   8
 -12   8  14 147.285 77.6482   3
  12  -8  14 348.047 227.365   7
  14  -8  12 281.018 230.181   7
  12  -7  14 799.586 237.649   7
  14  -7  12 898.584 242.608   7
  12  -6  14 780.932 212.364   7
  14  -6  12 536.745 246.498   7
 -12 -14  -5 363.209 213.592   2
 -14 -12  -5 584.726 190.302   2
  12  -5  14 887.733 236.230   7
  14  -5  12 430.976 240.548   7
 -12 -14  -4 1524.72 224.376   2
 -14 -12  -4 1394.71 236.717   2
  12  -4  14 1255.17 252.975   7
  14  -4  12 1464.30 260.189   7
 -12 -14  -3 266.020 185.117   2
 -14 -12  -3 428.364 220.588   2
  14  -3  12 284.557 225.479   7
 -12 -14  -2 2285.23 239.836   2
 -14 -12  -2 2282.61 258.081   2
  12  -2  14 2197.34 254.913   7
  14  -2  12 2267.68 268.877   7
 -12 -14  -1 15.9247 230.411   2
 -14 -12  -1 91.3071 199.520   2
  14  -1  12-73.7297 226.561   7
 -12 -14   0 1140.20 247.922   2
 -14 -12   0 1200.85 245.193   2
  14   0  12 1060.35 244.260   7
  14   1  12-99.0435 219.147   7
  14   2  12 1606.41 242.968   7
 -14 -12   2 1365.59 205.515   2
 -12 -14   2 1555.21 223.962   2
  14  -3 -12 562.358 183.542   6
 -12 -14   3 711.582 232.089   2
 -14 -12   3 706.326 228.130   2
  14  -4 -12 1723.48 218.604   6
  14 -12  -4 1599.93 211.797   6
 -12 -14   4 1436.83 230.438   2
 -14 -12   4 1893.71 241.386   2
  14  -5 -12 732.059 195.800   6
  14 -12  -5 402.327 216.884   6
 -14 -12   5 463.912 200.135   2
 -12 -14   5 785.344 212.159   2
  14 -12  -6 515.607 226.755   6
  14  -6 -12 596.744 231.376   6
 -12 -14   6 349.282 190.776   2
 -14 -12   6 993.921 215.181   2
  14 -12  -7 1016.76 197.135   6
  14  -7 -12 1125.05 201.474   6
  14  -8 -12 292.194 198.551   6
  14 -12  -8 423.720 217.627   6
   8 -14 -12 172.297 76.9282   9
  14 -12  -8 369.481 83.2269   9
  12 -14  -8 314.449 82.7925   9
  -8 -12  14 292.289 74.9918  11
 -14 -12   8-256.451 87.1939  12
 -14  -8  12-130.042 77.5948  12
 -12 -14   8-71.3889 83.3085  12
  14 -12  -9 738.247 86.0922   9
  12 -14  -9 639.923 79.6638   9
   9 -14 -12 728.557 89.5921   9
 -14  -9  12 568.366 75.3198  11
  -9 -12  14 793.857 80.9333  11
 -12  -9  14 666.497 74.2863  11
  14 -12  -9 571.359 226.441   6
  14  -9 -12 244.292 203.329   6
  12 -14  -9 775.985 211.550   6
  14 -10 -12 2157.84 97.9216   9
  12 -10 -14 2158.03 100.642   9
  12 -14 -10 2137.63 99.0798   9
  14 -12 -10 2093.77 100.576   9
 -10 -12  14 2164.81 91.5972  11
 -14 -10  12 2484.44 103.055  11
 -12 -10  14 2068.59 93.0927  11
  12 -11 -14 1325.39 85.7653   9
  14 -11 -12 1181.22 87.7739   9
  12 -14 -11 1254.81 87.5248   9
  11 -12 -14 1463.63 96.4886   9
  11 -14 -12 1454.38 95.8490   9
  14 -12 -11 1318.84 92.4088   9
 -12 -11  14 1206.61 81.5871  11
 -11 -12  14 1277.40 81.5961  11
 -14 -11  12 1324.85 91.9248  11
  12 -12 -14 1303.72 92.1369   9
  12 -14 -12 1325.41 93.0196   9
  14 -12 -12 1143.44 83.5229   9
 -12 -12  14 1185.26 86.5298  11
  14 -13  13 1497.85 80.4083   8
  13 -13  14 1413.47 76.0156   8
  13 -14  13 1625.56 79.9854   8
  13 -12  14 1237.47 80.7761   8
  13 -14  12 1165.10 75.9005   8
  12 -14  13 1152.97 76.7103   8
  14 -12  13 1127.20 78.2040   8
  12 -13  14 1333.00 80.8011   8
  14 -13  12 1253.40 80.1653   8
 -13  11  14 814.252 82.1535   3
  13 -11  14 970.530 84.0373   8
  13 -14  11 833.386 70.3554   8
  14 -11  13 831.300 73.6151   8
  11 -14  13 810.421 74.0185   8
  11 -13  14 929.642 73.4594   8
 -13  10  14 2065.29 99.9727   3
  10 -13  14 2357.29 97.3937   8
  10 -14  13 2214.64 88.0084   8
 -14 -13  -9 557.977 78.7701  10
 -13   9  14 625.110 91.8191   3
 -14   9  13 623.977 87.0742   3
   9 -14  13 632.816 69.6811   8
  13  -9  14 607.773 76.6116   8
   9 -13  14 589.981 79.6973   8
 -13 -14  -8 1341.23 81.8395  10
 -14 -13  -8 1354.73 94.2213  10
 -14  -8 -13 1341.12 90.3635  10
  13  -8  14 1604.44 243.084   7
  14  -8  13 1458.38 221.930   7
 -14   8  13 1240.55 84.2860   3
 -13   8  14 1246.81 87.3960   3
   8 -14  13 1456.27 84.6177   8
   8 -13  14 1389.26 77.3833   8
 -14 -13  -7 580.237 74.3765  10
 -13 -14  -7 662.765 84.4473  10
   7 -13  14 588.991 80.8050   8
   7 -14  13 672.180 68.7092   8
  13  -7  14 287.638 200.296   7
  14  -7  13 681.580 238.224   7
 -13   7  14 519.165 87.6982   3
 -14   7  13 607.880 88.3085   3
 -13 -14  -6 759.171 84.6048  10
 -14 -13  -6 640.705 82.3251  10
   6 -14  13 694.257 67.8308   8
   6 -13  14 621.700 78.6053   8
  13  -6  14 907.878 255.839   7
  14  -6  13 530.671 206.526   7
  -6 -13 -14 665.742 74.4910   4
  -6 -14 -13 686.811 79.7262   4
 -14   6  13 653.629 87.7771   3
 -13   6  14 573.386 84.9004   3
 -14 -13  -5 164.929 173.804   2
 -13 -14  -5 166.318 192.218   2
  13  -5  14 385.158 232.782   7
  14  -5  13 325.417 221.956   7
 -13 -14  -4-363.590 223.000   2
 -14 -13  -4 413.728 225.252   2
 -14 -13  -3 241.916 229.835   2
 -13 -14  -3 506.041 234.189   2
  13  -3  14 784.031 257.568   7
  14  -3  13 103.022 249.962   7
 -14 -13  -2 425.487 239.835   2
 -13 -14  -2 141.996 224.241   2
  13  -2  14 601.450 203.967   7
  14  -2  13 280.190 204.238   7
 -14 -13  -1 564.249 198.153   2
 -13 -14  -1 1029.34 226.763   2
  13  -1  14 720.812 247.712   7
  14  -1  13 677.539 233.184   7
 -13 -14   0 1109.12 206.150   2
 -14 -13   0 867.130 232.124   2
  13   0  14 1286.72 254.265   7
  14   0  13 1064.07 219.797   7
  13   1  14 439.934 203.238   7
  14   1  13 365.699 224.853   7
 -14 -13   2 371.624 200.000   2
 -13 -14   2 437.513 229.950   2
  13   2  14-238.443 242.092   7
  14   2  13 40.1321 201.917   7
 -13 -14   3 272.236 186.035   2
 -14 -13   3 476.072 223.514   2
  14 -13  -3 190.959 190.382   6
  13   3  14 329.541 220.653   7
  14  -4 -13 96.3389 186.204   6
 -14 -13   4-186.621 218.018   2
 -13 -14   4 168.934 185.699   2
  14 -13  -4-85.2810 193.511   6
  14  -5 -13 29.1100 199.113   6
  14 -13  -5 225.231 205.563   6
 -13 -14   5 67.6034 193.435   2
 -14 -13   5 213.876 180.698   2
 -13 -14   6 553.130 202.503   2
 -14 -13   6 724.917 211.414   2
  14 -13  -6 585.732 77.1743   9
  13 -14  -6 618.072 85.8810   9
 -13  -6  14 649.678 72.2934  11
 -14  -6  13 675.871 73.6767  11
  14 -13  -6 650.134 221.961   6
  14  -6 -13 588.707 238.761   6
  13 -14  -7 530.561 88.5154   9
  14 -13  -7 586.419 85.3858   9
 -14  -7  13 550.033 73.8415  11
 -13  -7  14 598.190 74.1418  11
  14 -13  -7 342.535 217.789   6
  14  -7 -13 523.603 200.054   6
  13 -14  -8 1199.15 208.661   6
  14 -13  -8 1361.19 205.214   6
  14  -8 -13 1458.22 226.335   6
  13 -14  -8 1508.80 87.9852   9
   8 -14 -13 1452.07 97.6883   9
  14 -13  -8 1565.93 90.3714   9
  14 -13  -9 771.937 88.2370   9
   9 -14 -13 550.121 81.6278   9
  13 -14  -9 499.282 82.1009   9
  13  -9 -14 728.848 84.2462   9
 -13  -9  14 556.366 81.9803  11
  -9 -13  14 480.677 76.0201  11
 -14  -9  13 468.276 86.7678  11
  14 -10 -13 2232.51 102.623   9
  13 -14 -10 2507.25 102.747   9
  10 -13 -14 2426.56 107.787   9
  14 -13 -10 2401.14 106.002   9
  13 -10 -14 2342.24 104.814   9
 -10 -13  14 2274.25 94.3667  11
 -13 -10  14 2502.15 105.187  11
 -14 -10  13 2292.44 102.544  11
  13 -14 -11 819.745 81.5050   9
  14 -11 -13 863.596 85.7217   9
  11 -13 -14 850.092 86.7460   9
  13 -11 -14 932.174 85.1851   9
  11 -14 -13 835.360 87.3679   9
  14 -13 -11 712.483 82.3022   9
 -14 -11  13 611.305 82.8770  11
 -13 -11  14 631.035 83.8881  11
 -11 -13  14 729.483 71.9753  11
  14 -12 -13 1404.63 86.8789   9
  13 -14 -12 1340.88 90.4064   9
  12 -14 -13 1152.71 86.5347   9
  12 -13 -14 1424.44 90.5356   9
  13 -12 -14 1248.48 83.6580   9
  14 -13 -12 1271.70 87.5270   9
 -12 -13  14 1217.01 82.5406  11
 -12 -14  13 1314.93 80.4001  11
 -13 -12  14 1177.72 79.2191  11
  13 -14 -13 1321.48 86.5968   9
  13 -13 -14 1426.12 86.7655   9
  14 -13 -13 1202.08 80.6147   9
 -13 -13  14 1145.47 76.9220  11
  14 -14  14 171.675 53.5785   8
  14 -13  14 167.432 64.7820   8
  14 -14  13 163.354 64.1542   8
  13 -14  14-29.1808 58.0842   8
  12 -14  14 87.7084 60.1874   8
  14 -14  12 84.0857 64.4538   8
  14 -12  14 156.255 68.0295   8
  14 -14  11 50.6895 63.0901   8
  14 -11  14 166.303 76.1739   8
  11 -14  14 136.004 70.9177   8
  10 -14  14 671.535 71.5560   8
 -14  10  14 543.176 84.2374   3
   9 -14  14-9.32722 70.5383   8
  14  -9  14 73.5824 70.3143   8
 -14   9  14-15.4623 86.3729   3
   8 -14  14 845.492 79.6236   8
 -14 -14  -8 720.479 82.1544  10
 -14   8  14 833.747 82.1645   3
   7 -14  14 153.208 65.9886   8
 -14 -14  -7 51.8198 83.9858  10
 -14   7  14-25.1228 88.0955   3
  -6 -14 -14 1547.59 85.3853   4
 -14 -14  -6 1520.93 91.0562  10
   6 -14  14 1683.67 81.2052   8
  14  -6  14 1574.88 235.909   7
 -14   6  14 1355.13 101.940   3
 -14 -14  -5 80.3006 76.9590  10
  -5 -14 -14 136.995 83.8688   4
   5 -14  14 200.871 65.9219   8
  14  -5  14 107.945 229.402   7
 -14 -14  -5 10.7925 174.070   2
 -14   5  14 163.100 81.0193   3
 -14 -14  -4 4239.16 129.781  10
   4 -14  14 4121.77 124.390   8
 -14   4  14 4366.37 142.804   3
 -14 -14  -4 4031.23 277.291   2
  -4 -14 -14 4131.16 130.520   4
 -14 -14  -3 171.165 227.660   2
 -14   3  14 182.058 78.8069   3
  14  -3  14 331.069 239.254   7
  -3 -14 -14 156.609 79.4559   4
 -14 -14  -2 4689.04 300.029   2
  14  -2  14 4902.27 305.130   7
 -14 -14  -1 256.782 193.407   2
  14  -1  14 428.532 245.857   7
 -14 -14   0 3462.44 267.087   2
  14   0  14 3436.04 281.421   7
  14   1  14 569.032 216.802   7
 -14 -14   2 4053.00 266.953   2
  14   2  14 3961.19 285.167   7
 -14 -14   3 206.408 213.724   2
   3 -14 -14 93.4589 85.5224   4
 -14  -3  14 214.104 74.4990  11
   4 -14 -14 3980.12 128.891   4
 -14  -4  14 3835.03 121.664  11
 -14  -5  14 142.261 78.2675  11
 -14 -14   5-5.25580 174.591   2
   5 -14 -14 167.826 70.2646   4
 -14 -14   6 1263.27 217.737   2
 -14  -6  14 1222.63 80.3334  11
  14 -14  -6 1196.25 86.4885   9
 -14  -7  14 150.201 75.3761  11
  14 -14  -7 121.355 86.3567   9
 -14  -8  14 557.110 75.3542  11
   8 -14 -14 512.722 90.4072   9
  14 -14  -8 454.168 78.8425   9
 -14  -9  14-57.2026 84.3998  11
 -14  -9  14 72.9754 79.7572  12
   9 -14 -14-44.8817 79.4156   9
  14 -14  -9 29.2586 76.2081   9
 -14 -10  14 533.344 80.1021  11
  14 -10 -14 360.299 80.4090   9
  14 -14 -10 447.703 78.0552   9
 -14 -11  14 68.8857 70.0095  12
 -14 -11  14 114.040 76.4663  11
  14 -11 -14 194.811 78.4626   9
  14 -14 -11 60.9798 77.8966   9
  11 -14 -14 30.8627 78.5349   9
 -12 -14  14 662.000 72.4529  11
  14 -12 -14 664.648 77.6985   9
  14 -14 -12 730.648 76.1453   9
  12 -14 -14 745.272 79.1633   9
  14 -14 -13 131.077 71.5464   9
  13 -14 -14 112.592 75.9054   9
  14 -13 -14 81.3380 70.5905   9
  14 -14 -14 518.437 68.0145   9
   0   0 -15 188.874 153.001   5
   1   1 -15 142.852 149.789   5
  -1  -1 -15 288.091 164.420   5
  -1   0 -15 2109.90 185.027   5
   0   1 -15 1952.39 180.797   5
   1   0 -15 2131.02 167.995   5
   0  -1 -15 2502.60 200.017   5
   1  -1 -15 305.296 155.426   5
  -1   1 -15 154.806 146.324   5
  15  -2   2-5.09903 154.842   7
  -2  -2 -15 245.902 168.550   5
  15  -1   2 172.802 171.180   7
   2   1 -15 243.026 140.121   5
  -1  -2 -15 377.371 175.796   5
  -2  -1 -15 42.6452 159.203   5
  15   0   2 248.133 165.454   7
   0  -2 -15 69.8473 176.434   5
  -2   0 -15 82.7681 167.087   5
   2   0 -15-65.7180 161.730   5
   1  -2 -15 165.960 147.095   5
  -1   2 -15 296.132 146.464   5
  -2   1 -15 253.915 148.974   5
   2  -1 -15 390.735 169.576   5
  -2   2 -15 231.256 147.971   5
   2  -2 -15 211.155 181.019   5
  15  -3   3-248.162 196.042   7
  -3  -3 -15 36.7690 186.567   5
 -15  -3  -3-71.2304 173.197   2
  -3  -2 -15 2523.42 205.090   5
  -2  -3 -15 2834.25 217.650   5
  15  -2   3 2029.42 208.753   7
  15  -3   2 2349.76 205.031   7
 -15  -2  -3 2395.87 192.467   2
 -15  -3  -2 2187.49 211.000   2
  15  -1   3 810.280 169.876   7
  -1  -3 -15 836.727 186.848   5
  -3  -1 -15 764.186 170.430   5
   3   1 -15 486.027 152.137   5
 -15  -3  -1 559.182 189.707   2
  15   0   3 1892.22 175.910   7
  -3   0 -15 2026.31 192.876   5
   3   0 -15 1892.36 177.258   5
   0  -3 -15 1818.76 179.470   5
 -15  -3   0 2030.76 215.848   2
   1  -3 -15 1135.52 191.487   5
  -3   1 -15 907.049 159.311   5
   3  -1 -15 880.532 157.237   5
   3  -2 -15 3498.19 224.442   5
   2  -3 -15 3259.38 205.041   5
  -3   2 -15 3248.96 197.216   5
 -15  -3   2 3755.91 210.303   2
   3  -3 -15 73.2420 164.050   5
 -15  -3   3-62.3996 186.627   2
  15  -4   4 73.7894 202.153   7
 -15  -4  -4 35.3102 177.923   2
  15  -3   4 316.829 202.582   7
  15  -4   3 342.645 198.151   7
  -4  -3 -15 480.914 198.033   5
 -15  -3  -4 128.218 179.017   2
 -15  -4  -3 167.801 182.059   2
  15  -2   4 337.117 195.310   7
  15  -4   2 303.047 176.641   7
  -4  -2 -15 643.114 185.987   5
 -15  -4  -2 493.508 193.697   2
 -15  -2  -4 729.138 183.015   2
  15  -1   4 1614.91 186.808   7
  -1  -4 -15 1530.13 212.509   5
   4   1 -15 1718.09 173.345   5
  -4  -1 -15 1952.96 190.390   5
 -15  -4  -1 1546.67 181.954   2
  15   0   4 511.067 179.127   7
   0  -4 -15 559.155 183.984   5
   4   0 -15 479.951 157.010   5
  -4   0 -15 458.426 178.759   5
 -15  -4   0 422.090 189.746   2
   1  -4 -15 1531.83 200.614   5
  -4   1 -15 1437.43 174.845   5
  -4   2 -15 472.725 159.228   5
   2  -4 -15 404.156 168.566   5
 -15  -4   2 230.989 162.500   2
 -15  -2   4 608.485 187.889   2
   3  -4 -15 317.129 187.392   5
 -15  -3   4 500.483 187.298   2
 -15  -4   3 119.082 176.858   2
 -15  -4   4-17.6336 166.379   2
  15  -5   5 83.5400 213.654   7
  -5  -5 -15 280.021 198.845   5
 -15  -5  -5 31.2768 178.824   2
  15  -4   5 1202.24 195.105   7
  15  -5   4 1597.19 193.271   7
  -4  -5 -15 1595.94 208.873   5
 -15  -5  -4 1425.08 191.503   2
 -15  -4  -5 1273.72 175.131   2
  15  -3   5 189.816 200.100   7
  15  -5   3 300.629 172.593   7
  -3  -5 -15 345.198 191.114   5
  -5  -3 -15 491.017 208.037   5
 -15  -3  -5 30.4014 144.747   2
 -15  -5  -3-53.9149 190.099   2
  -2  -5 -15 3537.49 237.997   5
  -5  -2 -15 3591.66 234.251   5
  15  -2   5 3347.48 242.491   7
 -15  -5  -2 2900.90 224.402   2
 -15  -2  -5 2850.32 193.669   2
  15  -1   5 1535.44 182.693   7
  -5  -1 -15 1667.91 202.583   5
  -1  -5 -15 1549.46 217.067   5
 -15  -5  -1 1427.02 187.285   2
  -5   0 -15 3771.06 234.343   5
 -15  -5   0 3389.22 224.230   2
  15   0   5 3635.17 237.335   7
  -5   1 -15 1443.10 181.657   5
  -5   2 -15 3574.48 212.369   5
 -15  -2   5 3641.54 208.981   2
 -15  -5   2 3872.30 238.423   2
 -15  -3   5 416.428 153.760   2
 -15  -5   3 363.695 160.887   2
 -15  -5   4 1560.10 174.201   2
 -15  -4   5 1305.79 174.571   2
 -15  -5   5 271.319 179.534   2
  -6  -6 -15-31.8786 218.983   5
  15  -5   6 1875.78 208.209   7
  -6  -5 -15 2154.38 236.399   5
  -5  -6 -15 2046.62 233.378   5
 -15  -6  -5 1813.47 205.840   2
  15  -4   6 121.106 214.625   7
  15  -6   4 242.700 207.212   7
  -4  -6 -15 803.007 212.942   5
 -15  -6  -4 421.394 157.054   2
  15  -3   6 279.313 194.651   7
  15  -6   3 133.704 210.490   7
  -6  -3 -15 433.726 207.556   5
  -3  -6 -15 264.800 207.403   5
 -15  -6  -3 64.3487 185.396   2
  15  -2   6 698.361 178.663   7
  -6  -2 -15 740.883 205.142   5
  -2  -6 -15 681.466 205.141   5
 -15  -6  -2 810.365 181.542   2
  15  -1   6 558.745 199.186   7
  -6  -1 -15 1043.26 202.711   5
  -1  -6 -15 853.294 190.790   5
 -15  -6  -1 918.414 206.552   2
  15   0   6 373.632 183.230   7
   0  -6 -15-64.5557 187.703   5
  -6   0 -15 335.477 188.756   5
 -15  -6   0 239.764 171.250   2
   1  -6 -15 547.087 197.369   5
  -6   1 -15 798.377 180.229   5
   2  -6 -15 386.425 213.580   5
 -15  -2   6 420.664 172.951   2
 -15  -6   2 745.416 204.007   2
   3  -6 -15 449.803 211.950   5
 -15  -6   3 283.973 179.855   2
 -15  -3   6 301.312 167.707   2
 -15  -6   4 104.883 174.174   2
 -15  -4   6 274.079 160.286   2
 -15  -5   6 1996.24 177.748   2
 -15  -6   5 2174.24 211.724   2
 -15  -6   6-53.8529 159.249   2
  15  -7   7 115.304 205.776   7
  -7  -7 -15 451.960 209.576   5
  15  -7   6 1775.09 230.776   7
  -7  -6 -15 1757.51 241.572   5
  -6  -7 -15 1982.65 220.263   5
  15  -5   7 1200.40 203.378   7
  15  -7   5 1255.64 204.014   7
  -7  -5 -15 1497.74 233.487   5
  -5  -7 -15 1336.59 195.003   5
 -15  -7  -5 1259.20 200.728   2
  15  -4   7 242.666 219.916   7
  -7  -4 -15 572.192 221.844   5
  -4  -7 -15 281.527 175.706   5
 -15  -7  -4 415.259 171.779   2
  15  -3   7 2290.86 210.587   7
  -3  -7 -15 2078.13 205.808   5
 -15  -7  -3 1669.18 191.870   2
  15  -2   7 921.828 205.612   7
  -2  -7 -15 872.829 201.576   5
  -7  -2 -15 1417.10 227.422   5
 -15  -7  -2 889.252 179.642   2
  15  -1   7 1461.89 196.121   7
  -1  -7 -15 1700.30 227.284   5
 -15  -7  -1 1522.05 222.790   2
  15   0   7 893.329 207.373   7
   0  -7 -15 822.200 188.122   5
 -15  -7   0 1015.12 211.887   2
  15   1   7 1135.72 184.429   7
   1  -7 -15 1558.89 225.123   5
   2  -7 -15 1357.10 214.626   5
 -15  -7   2 1157.83 210.897   2
   3  -7 -15 2172.58 223.749   5
 -15  -7   3 1624.69 216.689   2
 -15  -7   4 229.218 191.821   2
 -15  -7   5 836.571 201.795   2
 -15  -7   6 1985.83 204.652   2
  15  -7  -7 495.383 216.206   6
  15  -8   8 65.1365 240.791   7
  15  -7   8 1899.12 234.889   7
  15  -8   7 1989.27 231.450   7
  15  -8   6 392.105 191.930   7
  -6  -8 -15 327.803 187.668   5
  15  -5   8 2179.32 241.926   7
  15  -8   5 1461.91 236.599   7
  -5  -8 -15 1969.18 207.142   5
 -15  -8  -5 1820.92 208.296   2
  15  -8   4 558.524 224.687   7
  15  -4   8 684.947 233.875   7
  -4  -8 -15 536.721 183.480   5
 -15  -8  -4 420.076 196.757   2
  15  -3   8 233.879 190.289   7
  -3  -8 -15 370.871 182.300   5
 -15  -8  -3 283.940 176.425   2
  15  -2   8 1724.90 211.022   7
  -2  -8 -15 1614.70 209.318   5
 -15  -8  -2 1919.40 220.248   2
  15  -1   8 232.583 182.410   7
  -1  -8 -15 494.857 209.947   5
 -15  -8  -1 313.192 218.420   2
  15   0   8 2706.83 239.476   7
   0  -8 -15 2205.13 214.732   5
 -15  -8   0 2438.45 246.067   2
  15   1   8 129.856 174.098   7
   1  -8 -15 438.354 213.296   5
  15  -2  -8 1742.10 193.590   6
   2  -8 -15 1947.31 228.385   5
 -15  -8   2 1805.61 214.864   2
  15  -3  -8 663.572 181.209   6
   3  -8 -15 424.095 210.844   5
 -15  -8   3 465.668 210.749   2
  15  -4  -8 808.511 190.643   6
   4  -8 -15 792.084 227.521   5
 -15  -8   4 854.748 211.616   2
  15  -5  -8 2398.71 238.149   6
 -15  -8   5 2329.28 222.572   2
  15  -6  -8 367.814 229.402   6
 -15  -8   6 28.4419 190.474   2
  15  -7  -8 3172.90 269.404   6
  15  -8  -8-12.2175 202.195   6
  15  -9   9 96.9785 236.425   7
  15  -8   9 395.282 201.767   7
  15  -9   8 689.941 205.466   7
   9  -8  15 940.011 211.674   7
  15  -7   9-146.056 232.577   7
  15  -9   7-44.7253 230.244   7
   9  -7  15 211.777 224.385   7
  15  -6   9 956.252 251.286   7
  15  -9   6 1330.20 245.991   7
  -6  -9 -15 1234.65 209.511   5
  15  -9   5 495.486 229.953   7
  15  -5   9 535.551 243.199   7
  -5  -9 -15 841.988 201.312   5
 -15  -9  -5 486.605 189.969   2
  15  -4   9 1517.32 220.235   7
  -4  -9 -15 2156.84 215.848   5
 -15  -9  -4 1784.18 227.724   2
  -3  -9 -15 2426.01 229.764   5
 -15  -9  -3 2914.25 234.893   2
  15  -3   9 2595.87 264.961   7
  -2  -9 -15 2300.32 234.074   5
 -15  -9  -2 2482.25 245.206   2
  15  -2   9 2148.36 246.585   7
  -1  -9 -15 4077.23 258.522   5
  15  -1   9 4082.37 278.465   7
 -15  -9  -1 4303.58 265.269   2
  15   0   9 1599.13 237.674   7
   0  -9 -15 1623.32 211.610   5
 -15  -9   0 1748.56 243.714   2
  15   1   9 4512.23 268.431   7
   1  -9 -15 4803.43 265.906   5
  15  -2  -9 1569.85 217.228   6
   2  -9 -15 1806.13 232.023   5
 -15  -9   2 1613.07 201.947   2
   3  -9 -15 3949.24 266.548   5
  15  -3  -9 4368.39 257.326   6
 -15  -9   3 4063.66 267.622   2
  15  -4  -9 1577.18 227.072   6
   4  -9 -15 1766.32 206.842   5
 -15  -9   4 1296.03 226.372   2
 -15  -9   5 1428.59 203.519   2
  15  -5  -9 1065.39 216.080   6
 -15  -9   6 1715.88 220.160   2
  15  -9  -6 1399.13 236.515   6
  15  -6  -9 1773.67 252.220   6
  15  -7  -9 548.454 243.393   6
  15  -9  -7 421.381 208.731   6
  15  -8  -9 1214.05 240.991   6
  15  -9  -8 848.086 250.035   6
 -15 -10 -10-3.75387 73.0791  10
  15 -10  10 187.738 227.395   7
   9 -10  15 339.964 70.3277   8
  10  -9  15 310.672 82.7007   8
  15  -9  10 394.350 241.400   7
  15 -10   9 392.092 232.932   7
 -15  -9 -10 269.099 85.7410  10
 -15 -10  -9 186.718 80.7524  10
  15  -8  10 814.590 218.140   7
  15 -10   8 1431.83 228.314   7
  10  -8  15 1362.50 228.093   7
  15  -7  10 563.536 247.344   7
  15 -10   7 310.324 230.179   7
  10  -7  15 425.682 225.576   7
  15  -6  10 3211.99 285.625   7
  10  -6  15 2670.43 261.115   7
 -15 -10  -5 428.841 175.417   2
  -5 -10 -15 543.100 204.768   5
  15  -4  10 3039.36 274.075   7
 -15 -10  -4 3303.48 258.288   2
  -4 -10 -15 3026.39 244.102   5
  15  -3  10 1337.22 244.475   7
 -15 -10  -3 1468.38 230.947   2
  -3 -10 -15 1612.52 214.566   5
  15  -2  10 1466.40 218.741   7
 -15 -10  -2 1802.88 247.460   2
  -2 -10 -15 1248.73 197.684   5
  15  -1  10 2644.98 231.021   7
 -15 -10  -1 2539.49 223.405   2
  -1 -10 -15 2409.97 229.445   5
   0 -10 -15 830.315 202.582   5
  15   0  10 877.316 224.471   7
 -15 -10   0 855.915 233.824   2
  15   1  10 2510.15 240.847   7
   1 -10 -15 2381.18 238.196   5
 -15 -10   2 672.811 196.457   2
   2 -10 -15 773.091 211.524   5
  15  -3 -10 1742.40 228.498   6
 -15 -10   3 1680.00 233.778   2
   3 -10 -15 1797.64 237.191   5
  15  -4 -10 3055.87 251.932   6
 -15 -10   4 2429.20 245.992   2
   4 -10 -15 2553.86 250.969   5
  15  -5 -10 274.583 184.339   6
 -15 -10   5 193.011 182.921   2
   5 -10 -15 181.990 202.134   5
  15 -10  -6 3017.94 264.537   6
  15  -6 -10 3206.18 276.495   6
 -15 -10   6 3457.78 246.881   2
  15  -7 -10 127.617 233.097   6
  15 -10  -7 535.688 221.729   6
  15 -10  -8 1719.17 251.011   6
  15  -8 -10 1812.11 260.339   6
  10 -15  -9 219.487 86.0659   9
   9 -15 -10 235.245 80.1830   9
 -15 -10   9-9.74949 88.0894  12
 -15  -9  10-126.711 89.3684  12
 -10  -9  15 228.460 69.6991  11
  -9 -10  15 212.575 80.2741  11
  15 -10  -9 307.599 207.819   6
  10 -15 -10 110.733 87.9952   9
  15 -10 -10 122.130 235.901   6
 -10 -10  15 126.275 70.8649  11
 -15 -10  10-257.456 87.4794  12
 -15 -11 -11-13.2946 84.2327  10
  11 -11  15 104.827 68.4531   8
 -15 -10 -11 221.642 81.7624  10
 -15 -11 -10 39.0817 87.1073  10
  10 -11  15 134.010 77.2906   8
  15  -9  11 1699.76 246.518   7
  15 -11   9 1836.77 243.856   7
 -15  -9 -11 1704.34 88.6685  10
 -15 -11  -9 1792.46 100.511  10
  11  -9  15 1882.92 91.8029   8
   9 -11  15 1819.38 91.1681   8
  15  -8  11 415.667 203.771   7
  15 -11   8 642.453 210.869   7
  11  -8  15 1037.29 228.845   7
 -15  -8 -11 536.269 74.1970  10
  11  -8  15 816.969 85.4609   8
   8 -11  15 829.164 71.1973   8
  11  -7  15 2742.72 259.143   7
  15  -7  11 2339.08 275.533   7
  11  -6  15 688.398 206.081   7
  15  -6  11 719.614 247.340   7
  11  -5  15 4305.79 300.510   7
 -15 -11  -5 3835.39 236.764   2
  11  -4  15 1235.47 248.499   7
  15  -4  11 1062.25 247.957   7
 -15 -11  -4 1493.79 241.061   2
  15  -3  11 4282.01 294.506   7
 -15 -11  -3 3855.73 275.026   2
  15  -2  11-40.4196 200.896   7
 -15 -11  -2 319.815 237.230   2
  15  -1  11 1889.53 225.367   7
 -15 -11  -1 1692.95 214.613   2
 -11 -15  -1 1486.14 251.215   2
 -15 -11   0 92.1377 222.907   2
  15   0  11 73.0973 216.409   7
 -11 -15   0 161.002 219.460   2
   0 -11 -15 220.670 200.809   5
  15   1  11 930.974 234.641   7
   1 -11 -15 773.949 214.247   5
 -15 -11   2 279.519 207.329   2
 -11 -15   2 509.004 235.135   2
   2 -11 -15 77.5339 195.620   5
  15  -3 -11 3223.39 225.568   6
 -15 -11   3 3398.16 258.181   2
   3 -11 -15 3141.10 250.077   5
  15  -4 -11 384.619 187.952   6
 -15 -11   4 585.121 223.969   2
   4 -11 -15 512.292 220.532   5
   5 -11 -15 3375.29 245.854   5
 -15 -11   5 3646.44 229.987   2
  15 -11  -5 3022.53 261.216   6
  15  -5 -11 3263.63 240.579   6
   6 -11 -15 356.444 192.651   5
  15  -6 -11 559.417 231.727   6
  15 -11  -6 456.668 236.223   6
 -15 -11   6 452.483 212.144   2
  15  -7 -11 2324.24 263.422   6
  15 -11  -7 2276.78 229.220   6
  15 -11  -8 79.7742 231.373   6
  15  -8 -11 311.627 237.813   6
 -15  -8  11-54.2714 77.6757  12
 -15 -11   8 23.6752 77.9033  12
  -8 -11  15 342.318 76.4577  11
  15 -11  -8 380.004 81.7502   9
   8 -15 -11 373.120 76.5915   9
  15 -11  -9 1776.38 230.383   6
   9 -15 -11 1760.39 97.6753   9
  15 -11  -9 1648.76 89.0078   9
  -9 -11  15 1677.51 84.5699  11
 -15  -9  11 1619.17 93.1600  11
 -11  -9  15 1959.76 96.3901  11
  10 -15 -11 194.150 87.1932   9
  15 -11 -10 219.743 74.9729   9
 -10 -11  15 193.587 81.1028  11
 -15 -11  10-187.673 78.7922  12
 -11 -10  15 147.350 82.2962  11
 -15 -10  11-236.494 81.3059  12
  15 -11 -11 56.9896 73.9043   9
 -11 -11  15 66.0922 73.7194  11
 -15 -11  11 167.014 76.7817  12
 -12  12  15 42.6743 73.4558   3
  12 -12  15 109.612 75.6156   8
  12 -15  12 59.5811 65.8436   8
 -12  11  15 163.930 86.7675   3
  12 -15  11 343.061 69.0690   8
  11 -15  12 225.852 66.2168   8
  11 -12  15 267.150 67.9430   8
  12 -11  15 236.069 78.9350   8
 -15 -12 -10 1058.18 84.9361  10
 -15 -10 -12 1156.08 88.8567  10
 -12  10  15 1277.99 96.1085   3
  10 -12  15 1263.13 84.4514   8
  10 -15  12 1195.37 71.8944   8
 -15  -9 -12 293.166 83.7473  10
 -12   9  15 263.336 80.6581   3
   9 -12  15 261.949 77.3002   8
  12  -9  15 123.938 78.1290   8
 -15  -8 -12 700.385 83.2263  10
 -15 -12  -8 731.679 90.0541  10
  15  -8  12 612.827 246.081   7
  12  -8  15 700.128 220.934   7
 -12   8  15 768.859 98.3302   3
   8 -12  15 667.765 70.9914   8
  12  -8  15 796.319 73.3552   8
 -15  -7 -12 155.667 70.6068  10
 -15 -12  -7 196.590 72.5053  10
   7 -12  15 224.760 80.3030   8
  12  -7  15 213.875 68.6202   8
  12  -7  15 122.667 209.615   7
  15  -7  12 480.243 201.745   7
 -12   7  15 242.331 96.2266   3
  -6 -15 -12 1175.30 82.1343   4
 -12 -15  -6 1043.48 84.0159  10
 -15 -12  -6 1158.96 91.2292  10
  -6 -12 -15 993.681 78.5831   4
   6 -12  15 1134.99 80.8259   8
  12  -6  15 1029.09 85.6070   8
 -12   6  15 1036.39 102.285   3
 -15   6  12 1050.48 84.6801   3
  12  -6  15 1063.71 236.325   7
  15  -6  12 1458.50 250.323   7
 -15 -12  -5-21.4875 176.850   2
  12  -5  15 40.3238 202.942   7
 -15 -12  -4 534.719 233.446   2
  12  -4  15 635.232 230.871   7
  15  -4  12 501.336 205.835   7
 -15 -12  -3 38.5714 231.713   2
  15  -3  12-6.86072 246.110   7
 -12 -15  -2 485.296 226.510   2
 -15 -12  -2 487.505 240.572   2
  12  -2  15 950.547 260.970   7
  15  -2  12 548.937 243.044   7
 -12 -15  -1-5.51583 231.331   2
 -15 -12  -1 172.173 192.547   2
  15  -1  12 444.520 233.483   7
 -12 -15   0 794.038 247.754   2
 -15 -12   0 910.009 227.585   2
  15   0  12 868.330 249.121   7
  15   1  12 368.564 202.986   7
 -12 -15   2 336.869 210.264   2
 -15 -12   2 329.664 218.728   2
 -15 -12   3 195.833 213.821   2
 -12 -15   3 198.942 228.811   2
  15 -12  -4 366.934 211.471   6
  15  -4 -12 609.767 205.241   6
 -15 -12   4 252.287 223.446   2
  15 -12  -5-47.7510 196.506   6
  15  -5 -12 315.805 215.593   6
 -15 -12   5-269.399 186.692   2
   6 -15 -12 890.224 89.5300   9
  15 -12  -6 910.305 86.5355   9
 -15  -6  12 1007.80 87.5076  11
 -12  -6  15 967.777 82.5831  11
  15 -12  -6 650.718 193.861   6
  15  -6 -12 703.326 228.593   6
 -15 -12   6 966.983 216.874   2
  15 -12  -7 200.177 82.2583   9
  12 -15  -7 204.283 86.9212   9
   7 -15 -12 29.0157 85.4935   9
  -7 -12  15 123.869 75.4679  11
 -12  -7  15 172.416 81.7486  11
 -15 -12   7 102.920 92.0739  12
 -15  -7  12 133.537 76.7538  11
  15 -12  -7-66.4046 223.178   6
  15  -7 -12 54.3508 224.762   6
   7 -12 -15 164.655 211.512   5
  15 -12  -8 875.666 80.3146   9
   8 -15 -12 974.630 91.5374   9
  12 -15  -8 863.160 82.0773   9
  -8 -12  15 888.067 82.4645  11
  15 -12  -8 993.236 229.728   6
  15  -8 -12 782.831 227.542   6
  12 -15  -9 372.586 86.9037   9
  15 -12  -9 143.079 75.2901   9
   9 -15 -12 301.317 87.3016   9
 -15  -9  12 325.787 85.3365  11
 -12  -9  15 290.839 81.0666  11
  -9 -12  15 390.809 73.9899  11
  15 -12 -10 1008.45 81.2301   9
  10 -15 -12 1103.57 84.6363   9
  12 -10 -15 1074.42 84.0705   9
  12 -15 -10 980.000 91.3014   9
 -12 -10  15 1021.09 81.4798  11
 -10 -12  15 1041.76 76.0950  11
  12 -11 -15 229.063 82.9651   9
  12 -15 -11 311.323 78.1289   9
  11 -12 -15 308.978 86.1017   9
  15 -11 -12 477.420 80.2677   9
  15 -12 -11 355.217 75.5316   9
 -11 -12  15 437.984 78.5838  11
 -12 -11  15 393.114 80.2950  11
  12 -15 -12 134.158 82.6694   9
  15 -12 -12 71.9548 76.0881   9
  12 -12 -15 83.9620 75.3092   9
 -12 -12  15 90.8472 71.8780  11
 -15 -12  12 179.220 76.2663  12
  13 -13  15 56.2612 63.1162   8
  13 -15  13 12.0501 59.5776   8
  15 -13  13 114.092 58.6773   8
  13 -15  12 880.312 69.3949   8
  12 -13  15 786.057 66.3442   8
  15 -12  13 826.139 76.2765   8
  12 -15  13 801.357 63.3086   8
  13 -12  15 729.221 75.2811   8
  15 -13  12 816.508 74.3777   8
 -13  12  15 846.471 73.9029   3
 -12  13  15 922.470 81.4896   3
  11 -15  13 49.8745 66.6830   8
  15 -11  13 102.204 71.7624   8
  11 -13  15 171.720 69.2474   8
  13 -15  11 167.613 66.3849   8
 -13  11  15 10.6068 80.5283   3
  10 -15  13 129.134 62.3806   8
  10 -13  15 175.112 64.6394   8
  13 -15  10 246.407 68.5527   8
  13 -10  15 183.032 79.6617   8
 -13  10  15 309.078 87.5877   3
  13  -9  15 372.299 70.2445   8
   9 -13  15 385.505 67.4166   8
   9 -15  13 250.610 63.8500   8
 -15 -13  -9 315.824 82.3256  10
 -13   9  15 314.133 83.9808   3
   8 -13  15 286.131 69.8219   8
   8 -15  13 339.235 73.1852   8
  13  -8  15 473.248 79.1750   8
 -15  -8 -13 336.861 81.5228  10
 -15 -13  -8 419.074 85.5989  10
 -15   8  13 351.917 81.9565   3
 -13   8  15 282.853 93.8802   3
   7 -13  15 1046.36 83.6309   8
  13  -7  15 1030.04 83.2866   8
 -15 -13  -7 961.274 84.2426  10
 -15   7  13 916.165 83.6935   3
 -13   7  15 1078.76 89.7740   3
  -6 -13 -15 2124.61 94.1141   4
  -6 -15 -13 2243.76 99.3816   4
 -13 -15  -6 2134.53 95.2299  10
 -15 -13  -6 2155.65 95.4065  10
   6 -13  15 2256.01 97.3366   8
  13  -6  15 2201.70 90.6443   8
  13  -6  15 1954.33 263.548   7
  15  -6  13 2295.00 273.330   7
 -15   6  13 2128.74 103.849   3
 -13   6  15 2171.21 106.432   3
  -5 -13 -15 1132.83 90.8765   4
 -15 -13  -5 973.285 86.0539  10
 -13 -15  -5 956.402 83.2164  10
  -5 -15 -13 921.351 87.5873   4
   5 -13  15 988.643 82.2082   8
  13  -5  15 1141.35 85.3016   8
  13  -5  15 1303.43 262.582   7
 -15   5  13 993.269 84.7887   3
 -15 -13  -5 1075.95 187.190   2
 -13   5  15 1056.05 102.167   3
  -4 -13 -15 2005.67 95.4327   4
  -4 -15 -13 1861.84 98.7674   4
 -15 -13  -4 1759.66 94.0825  10
   4 -13  15 1868.69 93.2847   8
  13  -4  15 1802.38 91.1007   8
  13  -4  15 1655.60 268.865   7
  15  -4  13 1934.84 269.910   7
 -15   4  13 1707.58 102.785   3
 -13   4  15 1845.34 95.3819   3
 -15 -13  -4 1916.24 245.495   2
  -3 -15 -13 1734.04 99.5156   4
 -15 -13  -3 1563.05 86.0551  10
   3 -13  15 1673.92 80.2029   8
  13  -3  15 1840.32 271.693   7
  15  -3  13 1988.65 247.997   7
  -3 -13 -15 1914.29 95.9760   4
 -15 -13  -3 1563.65 251.939   2
 -15   3  13 1625.80 96.4317   3
 -13   3  15 1626.31 106.061   3
 -13 -15  -3 2234.72 254.306   2
  -2 -13 -15 1048.56 94.9283   4
  -2 -15 -13 978.514 90.5124   4
 -15   2  13 971.038 98.3126   3
 -13 -15  -2 1102.19 229.448   2
 -15 -13  -2 956.373 244.446   2
  13  -2  15 1121.15 233.721   7
  15  -2  13 1353.15 237.189   7
 -13 -15  -1 1073.09 232.501   2
 -15 -13  -1 1219.79 211.828   2
  13  -1  15 958.785 218.393   7
  15  -1  13 993.199 243.704   7
 -15 -13   0 2669.52 247.846   2
 -13 -15   0 2854.99 230.528   2
  15   0  13 2734.44 246.471   7
  13   0  15 2525.53 251.134   7
  13   1  15 1022.53 236.657   7
  15   1  13 656.190 247.864   7
   2 -15 -13 1151.82 81.9853   4
  13   2  15 1447.33 256.082   7
 -13 -15   2 1156.67 248.017   2
 -13  -2  15 1337.03 101.566   3
 -15 -13   2 992.991 226.760   2
   2 -13 -15 1236.33 90.6012   4
 -13 -15   3 1500.12 207.197   2
 -15 -13   3 1763.51 225.595   2
 -13  -3  15 1758.30 89.4238  11
 -15  -3  13 1630.50 82.0145  11
  15 -13  -3 1846.17 214.472   6
  13   3  15 1658.21 258.682   7
   3 -15 -13 1806.31 95.7459   4
   3 -13 -15 1862.64 98.5340   4
 -15 -13   4 1705.65 229.061   2
 -13 -15   4 2000.31 212.675   2
 -15  -4  13 1886.22 88.3102  11
 -13  -4  15 2035.58 87.5259  11
  15 -13  -4 1937.14 221.589   6
  15  -4 -13 2032.70 241.229   6
   4 -15 -13 1959.97 94.3898   4
   4 -13 -15 2055.35 98.2338   4
 -15 -13   5 1065.58 188.056   2
  13 -15  -5 982.496 91.4349   9
 -15  -5  13 1050.76 88.2150  11
 -13  -5  15 1026.00 87.3310  11
  15 -13  -5 1132.30 220.084   6
  15  -5 -13 1113.24 234.523   6
   5 -15 -13 971.372 77.5772   4
   5 -13 -15 1004.53 77.3546   4
 -15 -13   6 3094.95 240.750   2
  13 -15  -6 2887.54 110.955   9
  15 -13  -6 2791.44 106.588   9
 -15  -6  13 2724.78 102.153  11
 -13  -6  15 2666.46 103.381  11
  15 -13  -6 2520.56 232.232   6
  15  -6 -13 2624.03 251.689   6
 -13  -7  15 930.862 80.8190  11
 -15  -7  13 860.944 81.5117  11
  13 -15  -7 966.384 81.9731   9
   7 -15 -13 968.273 82.5894   9
  15 -13  -7 846.182 88.1332   9
 -15  -8  13 258.363 73.5979  11
 -13  -8  15 6.14920 74.2522  12
 -15 -13   8-260.834 90.5670  12
 -15  -8  13-215.864 86.2137  12
   8 -15 -13 260.771 78.8391   9
  15 -13  -8 220.973 75.9424   9
  13 -15  -8 298.733 86.4138   9
 -15  -9  13-60.1738 76.4044  12
  -9 -13  15 395.413 70.6651  11
 -13  -9  15 408.197 74.5551  11
 -15 -13   9-143.726 78.0367  12
  13  -9 -15 457.840 81.8797   9
  15 -13  -9 416.189 76.6169   9
   9 -15 -13 516.644 85.1497   9
  13 -15  -9 313.456 86.3795   9
 -15 -13  10 44.7724 74.6892  12
 -13 -10  15 308.917 77.1800  11
 -10 -13  15 330.272 68.2721  11
 -15 -10  13-151.781 78.6721  12
  13 -10 -15 373.645 80.7034   9
  10 -13 -15 156.737 86.9612   9
  15 -13 -10 153.513 75.3212   9
  13 -15 -10 269.668 84.6242   9
  10 -15 -13 172.120 82.9447   9
 -11 -13  15 12.5290 70.4296  11
 -15 -13  11 82.6659 72.0759  12
 -15 -11  13-188.711 76.4981  12
 -13 -11  15-0.55560 69.7603  11
  11 -13 -15-69.1147 83.4392   9
  15 -11 -13 134.790 76.6534   9
  13 -15 -11 43.9161 75.9183   9
  13 -11 -15 75.7751 73.9631   9
  15 -13 -11 10.5576 78.2888   9
 -12 -13  15 892.572 75.8294  11
 -13 -12  15 729.755 78.0201  11
  15 -13 -12 817.232 75.5317   9
  15 -12 -13 864.948 79.7971   9
  12 -13 -15 925.726 83.6522   9
  13 -12 -15 886.066 81.5195   9
  13 -15 -12 810.062 83.5718   9
  12 -15 -13 766.034 79.7633   9
 -15 -13  13 37.3477 67.6668  12
  13 -15 -13-1.46075 72.8553   9
  15 -13 -13 25.8667 67.0624   9
  13 -13 -15 151.148 69.9621   9
  14 -14  15 96.9586 51.1497   8
  14 -15  14 158.727 52.6979   8
  15 -14  14 121.036 53.4603   8
  15 -14  13 1286.93 64.6047   8
  14 -13  15 1274.19 66.2395   8
  13 -15  14 1352.48 62.9512   8
  15 -13  14 1351.89 69.9853   8
  14 -15  13 1258.53 62.6572   8
  13 -14  15 1312.67 70.1983   8
  15 -14  12 444.761 66.1168   8
  12 -14  15 551.603 66.7477   8
  12 -15  14 503.219 58.3801   8
  14 -12  15 613.763 69.7161   8
  14 -15  12 525.070 63.4992   8
  15 -12  14 521.416 63.0232   8
 -11  14  15 306.165 73.6532   3
 -14  11  15 421.285 71.4173   3
  14 -15  11 344.373 64.6279   8
  11 -14  15 407.165 61.1329   8
  11 -15  14 368.119 66.2718   8
  15 -14  11 348.752 66.5137   8
 -14  10  15 2118.11 98.5374   3
  14 -10  15 2372.34 96.5915   8
  10 -15  14 2263.62 86.9865   8
  14 -15  10 2226.65 88.2940   8
  10 -14  15 2394.07 92.3143   8
  15 -10  14 2330.28 89.8879   8
 -15   9  14 132.107 72.9814   3
 -14   9  15 212.572 76.5168   3
   9 -14  15 252.523 72.2636   8
   9 -15  14 178.801 63.4068   8
  14  -9  15 121.124 67.6143   8
  15  -9  14 125.507 78.4870   8
  14  -8  15 325.486 76.5487   8
   8 -14  15 381.126 74.2026   8
   8 -15  14 269.232 70.4348   8
 -15   8  14 316.920 79.1721   3
 -14   8  15 318.611 89.1600   3
 -15 -14  -8 411.002 73.9418  10
  14  -7  15 171.423 76.8748   8
   7 -15  14 195.699 63.7737   8
   7 -14  15 189.414 65.8412   8
 -15 -14  -7 222.718 83.1591  10
 -15   7  14 317.953 85.5366   3
 -14   7  15 188.644 82.0776   3
   6 -14  15 869.010 75.4858   8
   6 -15  14 915.417 73.9253   8
  14  -6  15 737.713 72.7911   8
  -6 -14 -15 724.461 79.3612   4
  -6 -15 -14 812.617 78.7255   4
 -15 -14  -6 723.770 86.0296  10
 -14 -15  -6 797.101 74.2268  10
 -15   6  14 744.377 94.7546   3
 -14   6  15 727.876 86.9976   3
  14  -5  15 468.108 79.3262   8
   5 -14  15 490.347 74.7302   8
  -5 -14 -15 435.664 85.6825   4
  -5 -15 -14 371.810 85.4928   4
 -14 -15  -5 388.149 73.9902  10
 -15 -14  -5 374.899 80.9596  10
 -15   5  14 173.649 90.5738   3
 -14   5  15 339.751 83.0727   3
 -15 -14  -4 504.048 80.8057  10
  -4 -14 -15 497.784 83.9972   4
  -4 -15 -14 397.409 81.2319   4
   4 -14  15 558.194 68.0124   8
  15  -4  14 786.537 258.848   7
 -15   4  14 525.608 82.7253   3
 -14   4  15 483.785 99.2696   3
  -3 -14 -15 1196.50 92.0826   4
  -3 -15 -14 1156.60 90.3329   4
 -15 -14  -3 1229.51 76.3330  10
  14  -3  15 915.448 258.261   7
  15  -3  14 1077.30 216.209   7
 -14 -15  -3 1240.79 238.568   2
 -14   3  15 1115.24 92.1660   3
 -15   3  14 1141.95 102.206   3
 -15 -14  -3 1365.89 241.145   2
  14  -2  15 376.342 205.411   7
  15  -2  14 439.222 242.081   7
  -2 -14 -15 321.989 90.6148   4
  -2 -15 -14 394.301 90.8212   4
 -14 -15  -2 325.664 235.380   2
 -15   2  14 284.715 97.0839   3
 -15 -14  -2 614.211 233.739   2
 -14   2  15 210.751 81.4202   3
  14  -1  15 2471.91 257.608   7
  15  -1  14 2590.95 276.596   7
 -14 -15  -1 2333.16 225.220   2
 -15   1  14 2827.59 119.970   3
 -15 -14  -1 2725.70 235.373   2
  -1 -15 -14 2539.17 106.163   4
  -1 -14 -15 2511.53 108.124   4
 -15 -14   0 685.519 211.216   2
 -14 -15   0 474.213 215.582   2
 -15   0  14 341.225 99.1814   3
  14   0  15 351.065 209.854   7
  15   0  14 335.120 213.062   7
   0 -15 -14 194.444 79.0653   4
   0 -14 -15 194.865 79.7536   4
  14   1  15 2792.22 268.741   7
   1 -15 -14 2470.50 108.154   4
   1 -14 -15 2531.21 109.326   4
 -14  -1  15 2520.02 115.264   3
  14   2  15 641.900 201.725   7
 -14 -15   2 378.395 212.277   2
 -15 -14   2 127.502 221.070   2
   2 -14 -15 161.976 82.7583   4
   2 -15 -14 141.702 84.5963   4
 -14  -3  15 1155.37 77.2101  11
 -15  -3  14 1208.48 77.8597  11
 -14 -15   3 1297.35 216.979   2
 -15 -14   3 1178.60 204.786   2
   3 -15 -14 1359.50 93.5935   4
   3 -14 -15 1336.67 94.0213   4
   4 -14 -15 460.173 83.4755   4
   4 -15 -14 528.200 84.4527   4
 -14  -4  15 395.980 71.2100  11
 -15  -4  14 386.766 70.6715  11
   5 -14 -15 293.140 71.9265   4
   5 -15 -14 328.764 72.5702   4
 -14  -5  15 481.528 84.6914  11
 -15  -5  14 373.375 82.4304  11
 -14  -6  15 847.273 77.3315  11
 -15  -6  14 794.577 77.4384  11
 -15  -7  14 162.551 78.0814  11
 -15  -7  14-19.5898 87.1853  12
 -14  -7  15 109.334 72.1906  11
   7 -15 -14 148.728 79.2544   9
  14 -15  -7 61.6640 76.1436   9
  15 -14  -7-18.8274 83.7988   9
 -14  -8  15 638.490 81.3928  11
 -15  -8  14 491.060 73.9528  11
   8 -15 -14 504.496 79.2216   9
   8 -14 -15 425.782 87.1155   9
  14 -15  -8 604.923 85.2181   9
  15 -14  -8 504.788 82.4909   9
 -14  -9  15-175.441 75.0419  12
 -15  -9  14-109.146 80.2349  12
  14 -15  -9 114.075 81.9484   9
  15 -14  -9 217.915 76.5588   9
   9 -15 -14 173.262 79.1754   9
 -14 -10  15 2526.09 103.952  11
  15 -14 -10 2463.51 102.024   9
  14 -15 -10 2711.04 103.855   9
  14 -10 -15 2524.26 100.107   9
  10 -14 -15 2394.18 105.109   9
 -11 -14  15 380.087 68.2221  11
 -14 -11  15 359.236 77.1758  11
  15 -14 -11 129.333 72.7955   9
  14 -11 -15 339.794 71.8018   9
  14 -15 -11 281.681 73.1041   9
  11 -15 -14 238.567 80.4669   9
  15 -11 -14 323.011 73.1218   9
  11 -14 -15 339.851 81.3196   9
  12 -14 -15 525.137 78.1595   9
  12 -15 -14 531.500 75.3747   9
  14 -15 -12 634.187 75.0637   9
  15 -14 -12 609.365 74.6938   9
  15 -12 -14 542.581 70.3423   9
  14 -12 -15 518.990 69.9866   9
  15 -14 -13 1246.31 76.0750   9
  14 -13 -15 1250.11 74.5054   9
  14 -15 -13 1180.28 76.7656   9
  13 -14 -15 1181.86 74.3455   9
  15 -13 -14 1123.68 71.1846   9
  13 -15 -14 1222.03 78.2628   9
  14 -15 -14 169.898 60.7000   9
  14 -14 -15-19.8137 63.8068   9
  15 -14 -14 114.499 59.4579   9
  15 -15  15 105.108 38.3376   8
  15 -14  15 951.263 55.6486   8
  14 -15  15 924.730 50.6905   8
  15 -15  14 941.531 49.8704   8
  15 -15  13 180.374 51.6968   8
  13 -15  15 121.384 50.5237   8
  15 -12  15 431.276 57.3180   8
  15 -15  12 363.686 53.7918   8
  12 -15  15 389.072 58.1778   8
  15 -15  11-42.3953 56.6658   8
  11 -15  15 5.98670 55.2626   8
 -15  10  15 141.632 70.9105   3
  10 -15  15 237.886 65.2838   8
  15 -15  10 243.988 62.3186   8
  15 -10  15 141.665 62.4919   8
 -15   9  15 73.5992 72.6292   3
  15  -9  15 2.56763 72.0833   8
   9 -15  15 38.9053 66.2813   8
 -15   8  15 803.201 89.0784   3
  15  -8  15 688.949 69.5997   8
   8 -15  15 882.851 73.8927   8
 -15   7  15-37.5044 79.2577   3
  15  -7  15 0.54584 66.5591   8
   7 -15  15 47.2227 61.6885   8
   6 -15  15 951.048 75.3007   8
  15  -6  15 864.354 78.0954   8
  -6 -15 -15 855.035 81.9252   4
 -15   6  15 734.763 92.7486   3
 -15 -15  -6 912.672 78.6387  10
  15  -5  15 98.3795 70.6785   8
 -15   5  15 64.9098 87.0067   3
  -5 -15 -15 107.353 81.6835   4
 -15 -15  -5 101.361 75.8398  10
 -15   4  15 526.835 85.4302   3
  -4 -15 -15 448.770 85.6005   4
 -15 -15  -4 506.617 76.1174  10
 -15   3  15-48.1515 96.8318   3
  -3 -15 -15 107.467 85.8994   4
 -15   2  15 1050.26 102.550   3
  -2 -15 -15 986.229 93.6779   4
 -15   1  15 162.642 95.1983   3
  -1 -15 -15 194.020 86.0394   4
   0 -15 -15 3706.32 124.304   4
   1 -15 -15 171.605 87.5358   4
   2 -15 -15 960.340 86.3021   4
   3 -15 -15 47.1522 85.4692   4
 -15  -3  15-53.5379 73.4770  11
   4 -15 -15 611.304 82.3604   4
 -15  -4  15 544.502 78.7223  11
   5 -15 -15 53.5274 71.8090   4
 -15  -5  15 96.8955 80.3351  11
 -15  -6  15 1111.28 81.7734  11
   7 -15 -15-7.74655 76.0884   9
 -15  -7  15 10.4727 81.8975  12
 -15  -7  15 40.8932 71.5689  11
   8 -15 -15 629.270 78.8991   9
 -15  -8  15 501.220 76.4757  11
  15 -15  -9-57.7701 76.2378   9
 -15  -9  15-199.498 73.0775  12
  15 -15 -10 217.567 70.1358   9
 -15 -10  15-19.1208 67.2999  12
  15 -15 -11-111.051 72.0906   9
  11 -15 -15-25.9680 73.1763   9
  15 -11 -15 77.1889 64.3641   9
 -15 -11  15 13.6726 62.7788  12
  15 -15 -12 383.418 65.8630   9
  15 -12 -15 374.538 63.8087   9
  12 -15 -15 481.139 70.4987   9
  15 -15 -13 29.0511 61.5542   9
  15 -13 -15 35.7942 57.4919   9
  13 -15 -15 179.492 61.3493   9
  15 -14 -15 924.571 61.0172   9
  14 -15 -15 935.451 62.3234   9
  15 -15 -14 888.258 59.7448   9
   0   0 -16 20819.5 572.411   5
   1   1 -16 46071.7 1127.04   5
  -1  -1 -16 46312.0 1134.13   5
   1   0 -16 5131.43 243.681   5
   0  -1 -16 4513.18 236.989   5
   0   1 -16 4763.16 228.584   5
  -1   0 -16 5264.41 243.104   5
   1  -1 -16 47301.0 1151.71   5
  -1   1 -16 46582.4 1143.67   5
 -16  -2  -2 17247.8 506.033   2
  -2  -2 -16 17101.2 503.650   5
   2   1 -16 2821.84 197.451   5
  -1  -2 -16 3208.05 237.742   5
  -2  -1 -16 2662.72 221.535   5
 -16  -2  -1 2831.85 250.230   2
 -16  -2   0 20412.3 561.585   2
   2   0 -16 19324.8 538.581   5
  -2   0 -16 19616.8 540.023   5
   2  -1 -16 3055.30 227.524   5
   1  -2 -16 2920.05 228.972   5
  -2   1 -16 3293.58 206.985   5
 -16  -2   2 16572.6 499.957   2
   2  -2 -16 17162.0 494.375   5
  -2   2 -16 16075.1 472.253   5
  -3  -3 -16 4093.49 257.660   5
  16  -3   3 3787.33 262.610   7
 -16  -3  -3 3508.83 229.922   2
  16  -2   3 1040.27 188.549   7
  -2  -3 -16 1175.20 208.371   5
  -3  -2 -16 1547.80 187.337   5
 -16  -3  -2 1335.31 189.362   2
 -16  -2  -3 729.624 181.247   2
  -3  -1 -16 12594.7 396.384   5
  -1  -3 -16 12412.6 399.903   5
   3   1 -16 13132.8 387.540   5
  16  -1   3 11565.5 410.795   7
 -16  -3  -1 12040.4 413.081   2
   3   0 -16 1953.75 200.707   5
   0  -3 -16 1368.89 220.749   5
  -3   0 -16 1944.66 203.730   5
 -16  -3   0 1497.04 219.428   2
   3  -1 -16 13283.6 421.569   5
  -3   1 -16 13565.7 410.650   5
   1  -3 -16 13332.6 429.329   5
   2  -3 -16 1056.00 184.693   5
  -3   2 -16 992.979 164.293   5
   3  -2 -16 1610.71 210.778   5
 -16  -3   2 848.467 217.019   2
 -16  -2   3 1138.09 219.146   2
   3  -3 -16 3328.04 221.989   5
 -16  -3   3 3017.11 240.804   2
  16  -4   4 791.063 218.147   7
 -16  -4  -4 620.511 172.188   2
  16  -3   4 1154.19 216.523   7
  16  -4   3 1018.37 221.886   7
  -3  -4 -16 1152.88 200.136   5
  -4  -3 -16 872.046 200.228   5
 -16  -3  -4 1179.39 170.741   2
 -16  -4  -3 965.215 196.361   2
  -2  -4 -16 3381.89 249.836   5
  -4  -2 -16 3434.61 231.764   5
  16  -2   4 3480.36 234.781   7
 -16  -4  -2 3532.65 222.825   2
 -16  -2  -4 3164.36 222.805   2
  16  -1   4 822.986 202.808   7
  -1  -4 -16 1274.47 206.183   5
  -4  -1 -16 1462.83 197.814   5
 -16  -4  -1 1348.30 221.686   2
   4   0 -16 3118.17 219.357   5
   0  -4 -16 3140.27 242.531   5
  -4   0 -16 3026.59 213.350   5
 -16  -4   0 3372.11 236.588   2
  16   0   4 3227.06 221.064   7
  -4   1 -16 1540.55 195.400   5
   1  -4 -16 1354.19 195.739   5
   4  -1 -16 1394.15 203.010   5
   4  -2 -16 3541.94 237.050   5
   2  -4 -16 3311.53 233.465   5
  -4   2 -16 3674.85 221.564   5
 -16  -4   2 3708.16 255.576   2
 -16  -2   4 3292.52 244.678   2
   4  -3 -16 1039.47 207.581   5
   3  -4 -16 1236.13 194.083   5
 -16  -3   4 1087.43 206.729   2
 -16  -4   3 1129.84 205.779   2
   4  -4 -16 1190.65 210.168   5
 -16  -4   4 1164.45 199.057   2
  16  -5   5 667.383 233.534   7
  -5  -5 -16 1034.48 227.729   5
 -16  -5  -5 761.025 205.452   2
  16  -4   5 1881.67 219.158   7
  16  -5   4 1454.29 203.167   7
  -4  -5 -16 1610.25 215.717   5
 -16  -5  -4 1643.55 182.764   2
 -16  -4  -5 1290.58 206.651   2
  16  -3   5 1180.33 198.476   7
  16  -5   3 1533.20 229.173   7
  -5  -3 -16 1309.05 200.275   5
  -3  -5 -16 1280.84 200.176   5
 -16  -5  -3 1451.31 208.563   2
 -16  -3  -5 1295.30 202.042   2
  16  -2   5 1156.48 197.076   7
  -5  -2 -16 1501.46 221.022   5
 -16  -2  -5 807.198 192.473   2
 -16  -5  -2 1193.75 193.277   2
  16  -1   5 1577.95 225.086   7
  -5  -1 -16 1958.05 221.244   5
 -16  -1  -5 1653.04 182.471   2
 -16  -5  -1 1765.43 227.316   2
  16   0   5 353.172 183.423   7
  -5   0 -16 511.370 171.334   5
   5   0 -16 561.167 160.295   5
 -16  -5   0 401.052 198.392   2
  -5   1 -16 1793.86 211.418   5
  -5   2 -16 1589.22 200.139   5
 -16  -2   5 1438.80 207.354   2
 -16  -5   2 1362.12 227.536   2
   3  -5 -16 676.253 187.316   5
 -16  -5   3 714.035 200.682   2
 -16  -3   5 917.099 201.755   2
   4  -5 -16 2174.67 244.514   5
 -16  -5   4 2009.26 208.132   2
 -16  -4   5 1635.74 216.780   2
 -16  -5   5 417.447 202.276   2
  16  -6   6 863.251 210.740   7
  -6  -6 -16 609.515 211.749   5
  16  -5   6 1196.92 231.422   7
  16  -6   5 1268.05 212.386   7
  -6  -5 -16 1546.95 240.985   5
  -5  -6 -16 1641.72 213.820   5
 -16  -6  -5 1406.31 214.081   2
  16  -4   6 698.270 214.510   7
  16  -6   4 683.749 237.197   7
  -4  -6 -16 966.045 202.969   5
 -16  -6  -4 657.006 169.331   2
  16  -3   6 2004.35 244.770   7
  -6  -3 -16 1758.76 211.297   5
  -3  -6 -16 1875.66 236.320   5
 -16  -6  -3 1702.31 213.808   2
  -2  -6 -16 2742.78 240.844   5
  -6  -2 -16 2426.18 242.421   5
  16  -2   6 1941.25 236.456   7
 -16  -6  -2 2414.23 205.199   2
  16  -1   6 875.856 190.959   7
  -6  -1 -16 1166.74 220.244   5
  -1  -6 -16 1181.64 205.333   5
 -16  -6  -1 1063.81 223.197   2
  16   0   6 938.624 214.235   7
   0  -6 -16 1309.72 221.811   5
  -6   0 -16 983.213 196.855   5
 -16  -6   0 904.612 207.988   2
   1  -6 -16 807.902 229.627   5
 -16  -1   6 816.801 196.349   2
   2  -6 -16 3422.38 260.079   5
 -16  -6   2 3127.56 255.201   2
 -16  -2   6 3046.66 231.531   2
 -16  -6   3 1553.53 214.683   2
 -16  -3   6 1544.63 198.675   2
 -16  -6   4 1307.18 201.562   2
 -16  -4   6 1222.60 184.496   2
 -16  -6   5 1255.89 213.214   2
 -16  -5   6 1276.06 176.732   2
 -16  -6   6 1480.64 179.400   2
  16  -7   7 1679.99 233.641   7
  -6  -7 -16 1137.02 237.861   5
  -7  -6 -16 1664.38 235.514   5
  16  -5   7 1514.04 248.348   7
  -5  -7 -16 1976.01 246.555   5
  -7  -5 -16 2039.95 248.595   5
 -16  -7  -5 1768.50 224.725   2
  -4  -7 -16 2477.82 247.704   5
  16  -4   7 2283.45 250.110   7
 -16  -7  -4 2396.32 204.991   2
  16  -3   7 1405.85 246.358   7
  -7  -3 -16 1366.77 214.573   5
  -3  -7 -16 1505.81 205.236   5
 -16  -7  -3 1086.01 210.126   2
  16  -2   7 1288.73 242.423   7
  -2  -7 -16 1369.79 224.314   5
 -16  -7  -2 1332.63 196.473   2
  16  -1   7 1028.71 215.255   7
  -1  -7 -16 1201.74 219.558   5
 -16  -7  -1 913.160 232.401   2
  16   0   7 6.10302 211.472   7
   0  -7 -16 60.0314 218.640   5
 -16  -7   0 329.653 210.283   2
   1  -7 -16 613.376 202.852   5
   2  -7 -16 1767.92 212.482   5
 -16  -7   2 2085.90 243.849   2
   3  -7 -16 672.013 217.837   5
 -16  -7   3 613.713 204.064   2
   4  -7 -16 3099.68 260.889   5
 -16  -7   4 2818.49 228.087   2
   5  -7 -16 960.579 225.603   5
 -16  -7   5 1405.78 222.671   2
  16  -6  -7 1352.75 246.230   6
 -16  -7   6 991.948 177.728   2
  16  -7  -7 1463.32 250.415   6
  16  -8   8 1425.42 256.375   7
  16  -7   8 254.230 232.394   7
  16  -8   7 105.395 196.925   7
  16  -8   6 379.380 219.079   7
  -6  -8 -16 858.618 224.907   5
  16  -5   8 1006.84 255.488   7
  16  -8   5 967.156 208.775   7
  -5  -8 -16 1180.47 235.572   5
 -16  -8  -5 1368.09 218.324   2
  16  -4   8 666.952 203.703   7
  -4  -8 -16 564.630 224.482   5
 -16  -8  -4 598.221 185.622   2
  -3  -8 -16 3422.78 247.851   5
 -16  -8  -3 2964.07 241.075   2
  16  -3   8 3042.56 268.536   7
  -2  -8 -16 2176.45 229.210   5
 -16  -8  -2 2098.47 216.877   2
  16  -2   8 2277.52 258.730   7
  -1  -8 -16 3636.46 263.674   5
  16  -1   8 3429.21 254.094   7
 -16  -8  -1 3481.26 273.378   2
  16   0   8-113.394 225.063   7
   0  -8 -16 355.504 217.799   5
 -16  -8   0 333.404 211.331   2
   1  -8 -16 2613.34 224.493   5
   2  -8 -16 2655.10 228.940   5
  16  -2  -8 2419.19 219.796   6
 -16  -8   2 2716.90 254.230   2
 -16  -8   3 2223.32 238.725   2
   3  -8 -16 2217.30 243.049   5
  16  -3  -8 2619.49 232.085   6
 -16  -8   4 553.005 198.418   2
   4  -8 -16 958.815 236.082   5
  16  -4  -8 736.715 188.638   6
 -16  -8   5 668.193 217.126   2
   5  -8 -16 619.244 228.188   5
  16  -5  -8 479.548 230.627   6
  16  -6  -8 849.430 237.233   6
 -16  -8   6 268.979 168.314   2
  16  -8  -7-99.2398 193.156   6
  16  -7  -8 359.027 236.501   6
  16  -8  -8 1063.54 248.660   6
  16  -9   9 1249.57 244.920   7
 -16  -9  -9 1011.07 89.4418  10
   9  -9  16 1006.73 86.6474   8
  16  -8   9 2146.94 240.192   7
  16  -9   8 2007.96 238.047   7
 -16  -9  -8 2171.18 104.510  10
 -16  -8  -9 2092.55 101.955  10
   8  -9  16 2244.99 100.091   8
   9  -8  16 2079.86 97.2640   8
  16  -7   9 1002.03 226.947   7
  16  -9   7 633.495 246.500   7
   9  -7  16 989.570 204.922   7
  -6  -9 -16 6150.86 313.123   5
  16  -5   9 456.360 211.731   7
 -16  -9  -5 433.487 213.008   2
  -5  -9 -16 538.582 224.791   5
  16  -4   9 9407.69 398.529   7
 -16  -9  -4 8895.81 340.690   2
  -4  -9 -16 9561.01 368.706   5
  16  -3   9 430.689 230.643   7
 -16  -9  -3 703.326 206.726   2
  -3  -9 -16 716.218 193.776   5
  16  -2   9 4725.38 281.527   7
 -16  -9  -2 4185.83 256.421   2
  -2  -9 -16 4366.34 279.081   5
  16  -1   9 263.260 225.221   7
 -16  -9  -1 819.468 239.444   2
  -1  -9 -16 710.900 197.009   5
  16   0   9 129.567 222.591   7
 -16  -9   0 144.555 219.486   2
   0  -9 -16 179.389 221.283   5
   1  -9 -16 832.389 227.659   5
 -16  -9   2 5031.27 296.705   2
   2  -9 -16 4790.87 290.348   5
  16  -3  -9 5.64640 184.826   6
 -16  -9   3 486.173 219.709   2
   3  -9 -16 804.371 232.568   5
  16  -4  -9 8783.74 349.449   6
 -16  -9   4 9059.65 346.167   2
   4  -9 -16 8599.57 347.619   5
  16  -5  -9 425.249 233.222   6
 -16  -9   5 563.665 217.478   2
   5  -9 -16 751.326 242.682   5
   6  -9 -16 5478.27 304.108   5
  16  -9  -6 5151.99 285.007   6
  16  -6  -9 4908.70 297.997   6
 -16  -9   6 5144.75 253.261   2
  16  -7  -9 585.717 223.507   6
  16  -9  -7 394.597 241.674   6
  16  -8  -9 1576.09 262.897   6
  -9  -8  16 1765.48 89.8447  11
  -8  -9  16 1966.25 96.7702  11
   9 -16  -8 1613.51 88.9658   9
   8 -16  -9 1750.21 95.4032   9
  -9  -9  16 1011.69 78.1474  11
   9 -16  -9 1157.73 90.2967   9
 -16 -10 -10 1721.35 97.1467  10
  10  -9  16 778.513 84.3672   8
 -16 -10  -9 658.885 84.7647  10
 -16  -9 -10 805.514 77.9300  10
  16  -9  10 819.823 243.070   7
  16 -10   9 345.510 228.141   7
  10  -8  16 193.095 76.9018   8
 -16 -10  -8 141.127 80.8551  10
 -16  -8 -10 80.0355 78.1713  10
  16  -8  10 329.695 200.972   7
  16 -10   8 445.537 240.172   7
  10  -8  16 255.559 187.623   7
  10  -7  16 1496.94 91.1005   8
   7 -10  16 1474.67 91.1935   8
  16  -7  10 1408.21 249.566   7
  10  -7  16 1602.94 210.283   7
 -16  -7 -10 1429.03 88.8150  10
  10  -6  16 712.646 226.135   7
 -16 -10  -5 830.018 220.722   2
  -5 -10 -16 750.275 193.781   5
  16  -5  10 1126.48 224.540   7
 -16 -10  -4 696.287 187.598   2
  -4 -10 -16 721.921 210.661   5
  16  -4  10 816.647 250.457   7
 -16 -10  -3 1241.30 222.414   2
  -3 -10 -16 1371.25 233.695   5
  16  -3  10 1716.56 232.966   7
 -16 -10  -2 865.882 197.474   2
  -2 -10 -16 1246.11 199.636   5
  16  -2  10 937.159 234.016   7
 -16 -10  -1-65.9075 238.484   2
  -1 -10 -16 289.503 216.372   5
  16  -1  10 241.771 200.017   7
 -16 -10   0 87.8486 222.871   2
   0 -10 -16-140.102 182.498   5
  16   0  10-231.466 233.347   7
   1 -10 -16 62.5855 195.867   5
  16   1  10 350.935 201.989   7
   2 -10 -16 2030.99 218.171   5
 -16 -10   2 2032.18 254.684   2
 -16 -10   3 2102.64 246.002   2
   3 -10 -16 2291.11 231.963   5
  16  -3 -10 2107.28 235.253   6
 -16 -10   4 1723.94 223.639   2
   4 -10 -16 2002.79 247.756   5
  16  -4 -10 1532.66 241.763   6
 -16 -10   5 1624.27 235.206   2
   5 -10 -16 1472.56 234.474   5
  16  -5 -10 1592.62 237.326   6
 -16 -10   6 1193.19 183.451   2
  16 -10  -6 875.248 215.668   6
  16  -6 -10 782.226 223.314   6
   6 -10 -16 1273.28 222.896   5
 -10  -7  16 1625.03 91.9306  11
  -7 -10  16 1659.38 92.9815  11
  16  -7 -10 1458.72 210.375   6
  16 -10  -7 1524.43 256.731   6
   7 -10 -16 1347.30 242.387   5
  10 -16  -7 1646.55 95.1220   9
   7 -16 -10 1516.89 93.1403   9
  10 -16  -8 376.038 75.9711   9
   8 -16 -10 359.410 86.1648   9
  -8 -10  16 532.129 77.7320  11
 -16  -8  10-253.458 92.6820  12
 -16 -10   8-209.161 90.8559  12
 -10  -8  16 401.518 80.2101  11
  16 -10  -8 180.642 192.364   6
  16  -8 -10 313.174 209.603   6
   9 -16 -10 776.506 90.4567   9
  10 -16  -9 907.842 86.4641   9
 -10  -9  16 972.298 88.3609  11
  -9 -10  16 827.272 78.7122  11
 -10 -10  16 2074.43 97.3667  11
  10 -16 -10 1788.65 98.6081   9
 -16 -11 -11 1411.52 82.5020  10
 -11  11  16 1316.69 98.9641   3
  11 -11  16 1320.90 85.5384   8
 -16 -10 -11 1373.36 91.7002  10
 -16 -11 -10 1371.79 83.5900  10
 -11  10  16 1342.71 98.6683   3
  11 -10  16 1386.62 79.3698   8
  10 -11  16 1267.16 86.6151   8
 -16 -11  -9 123.998 76.2663  10
 -16  -9 -11 195.661 84.4922  10
 -11   9  16 237.188 82.0557   3
  11  -9  16 232.455 81.3465   8
   9 -11  16 140.718 77.1615   8
 -16  -8 -11 697.688 86.1651  10
 -11   8  16 746.252 96.9002   3
   8 -11  16 817.885 85.5488   8
  11  -8  16 733.319 85.0118   8
 -16  -7 -11 126.890 82.1262  10
 -16 -11  -7 186.464 82.8249  10
   7 -11  16 189.750 69.1754   8
  11  -7  16 336.205 81.8813   8
  16  -7  11 66.9292 203.089   7
  11  -7  16 271.299 199.734   7
 -11   7  16 264.785 96.6107   3
  -6 -16 -11 1051.34 87.4370   4
 -16  -6 -11 978.368 80.2400  10
 -16 -11  -6 863.147 90.3005  10
  -6 -11 -16 1088.04 87.3825   4
   6 -11  16 1199.94 87.4546   8
  11  -6  16 957.124 74.2943   8
  11  -6  16 974.055 243.627   7
 -11   6  16 1068.54 96.7908   3
 -16 -11  -5 111.412 80.1545  10
  -5 -11 -16 434.069 78.2393   4
  -5 -16 -11 242.258 74.2277   4
   5 -11  16 412.689 83.2278   8
  11  -5  16 346.239 76.8315   8
  11  -5  16 288.650 201.046   7
  16  -5  11 233.604 205.385   7
 -16 -11  -5 558.978 219.711   2
 -16 -11  -4 657.213 193.184   2
  11  -4  16 1008.68 235.352   7
  16  -4  11 863.086 254.166   7
 -16 -11  -3 487.559 214.243   2
  16  -3  11 241.623 204.359   7
 -16 -11  -2 446.874 201.535   2
  16  -2  11 673.135 225.847   7
 -16 -11  -1 448.283 243.098   2
  -1 -11 -16 608.661 206.966   5
  16  -1  11 795.857 212.204   7
 -16 -11   0-95.2457 232.342   2
   0 -11 -16-83.4326 182.623   5
  16   0  11 13.4392 230.694   7
   1 -11 -16 460.057 206.596   5
  16   1  11 608.354 204.748   7
   2 -11 -16 1244.82 215.268   5
 -16 -11   2 1076.72 248.496   2
   3 -11 -16 402.859 192.421   5
 -16 -11   3 351.797 216.184   2
 -16 -11   4 1321.06 217.767   2
  16  -4 -11 1516.67 237.921   6
   4 -11 -16 1627.69 237.195   5
 -16  -5  11 247.638 82.8987  11
 -11  -5  16 416.607 72.9390  11
  -5 -11  16 412.460 72.4918  11
   5 -11 -16 581.147 80.9572   4
   5 -16 -11 438.489 77.5578   4
   5 -16 -11 452.627 82.3174   9
  11 -16  -5 371.427 86.8359   9
   5 -11 -16 476.244 210.977   5
  16  -5 -11 282.422 216.699   6
  16 -11  -5 349.254 192.184   6
 -16 -11   5 393.075 217.881   2
 -16 -11   6 837.033 175.245   2
   6 -16 -11 704.933 78.3088   9
  11 -16  -6 684.075 88.9190   9
  -6 -11  16 840.340 73.1401  11
 -16  -6  11 747.255 76.3637  11
 -11  -6  16 874.377 81.3446  11
  16  -6 -11 826.434 220.489   6
  16 -11  -6 739.926 229.496   6
   6 -11 -16 591.532 201.666   5
   7 -16 -11 153.635 81.8311   9
  11 -16  -7 182.294 79.0286   9
  -7 -11  16 249.090 69.1641  11
 -16  -7  11-13.3458 79.2766  12
 -16 -11   7 196.789 91.7660  12
 -11  -7  16 246.210 71.8277  11
  16 -11  -7-49.4245 230.583   6
  16  -7 -11 635.255 191.200   6
   7 -11 -16 561.912 218.003   5
 -16 -11   8-7.62389 85.5009  12
 -16  -8  11-36.0167 83.3520  12
  -8 -11  16 415.948 77.5993  11
  11 -16  -8 394.789 86.1735   9
   8 -16 -11 368.178 85.2308   9
 -16  -9  11-50.1458 89.6091  12
 -16 -11   9-43.3954 82.8114  12
 -11  -9  16 92.3098 73.3344  11
  -9 -11  16 177.229 80.4115  11
   9 -16 -11 29.7276 84.6841   9
  11 -16  -9 54.5444 77.5972   9
 -10 -11  16 1869.23 86.7944  11
 -11 -10  16 1846.33 87.8092  11
  11 -16 -10 1770.69 92.5512   9
  10 -16 -11 1911.66 92.7921   9
 -11 -11  16 996.419 83.5564  11
  11 -11 -16 1084.54 89.5238   9
  11 -16 -11 874.972 86.9829   9
 -12  12  16 192.363 74.6609   3
  12 -12  16 423.490 66.8997   8
  16 -12  12 206.274 72.1005   8
 -12  11  16 1133.35 93.8129   3
 -11  12  16 909.924 83.4435   3
  11 -12  16 1163.69 81.1348   8
  10 -12  16 643.941 75.1902   8
  12 -10  16 749.552 81.1072   8
 -12  10  16 645.282 94.3487   3
 -16 -12 -10 673.115 85.6085  10
   9 -12  16 1242.65 78.5786   8
  12  -9  16 1403.29 79.0472   8
 -12   9  16 1214.52 98.0309   3
 -16  -9 -12 1246.81 81.6729  10
   8 -12  16 432.211 78.4403   8
  12  -8  16 565.796 71.3748   8
 -12   8  16 497.793 94.3761   3
 -16 -12  -8 386.272 75.3496  10
 -16  -8 -12 406.949 74.9279  10
  12  -7  16 913.056 72.4482   8
   7 -12  16 944.924 82.4692   8
 -16 -12  -7 776.601 89.0316  10
 -16  -7 -12 875.415 83.8610  10
 -12   7  16 820.589 88.6678   3
  -6 -16 -12 1337.24 85.6432   4
 -16 -12  -6 1319.15 83.8478  10
  -6 -12 -16 1535.63 90.9980   4
   6 -12  16 1382.78 90.0045   8
  12  -6  16 1557.62 90.1655   8
  12  -6  16 1415.84 248.585   7
 -16   6  12 1324.03 94.0203   3
 -12   6  16 1344.55 99.4059   3
  -5 -16 -12 986.629 83.5230   4
 -16 -12  -5 1064.77 90.3817  10
  -5 -12 -16 1077.62 83.7157   4
   5 -12  16 1196.99 83.8644   8
  12  -5  16 1099.52 74.4473   8
  12  -5  16 926.174 247.960   7
 -12   5  16 1284.80 105.560   3
 -16   5  12 974.316 92.1624   3
 -16 -12  -5 1019.37 227.569   2
  -4 -16 -12 1186.89 85.4447   4
 -16 -12  -4 1090.62 90.1669  10
  -4 -12 -16 1480.23 95.2105   4
   4 -12  16 1309.56 86.9578   8
  12  -4  16 1675.34 261.159   7
  16  -4  12 825.871 245.154   7
 -16 -12  -4 960.554 192.460   2
 -16   4  12 1072.92 93.5178   3
 -16 -12  -3 1649.67 94.7488  10
  -3 -16 -12 1753.03 91.3337   4
  -3 -12 -16 1640.79 100.895   4
  16  -3  12 1967.26 273.651   7
 -16   3  12 1580.12 95.7838   3
 -12   3  16 1639.09 96.5804   3
 -16 -12  -3 1642.83 226.158   2
  -2 -12 -16 759.355 80.0070   4
  -2 -16 -12 674.227 84.1530   4
 -16 -12  -2 546.795 194.085   2
 -16   2  12 634.224 80.3277   3
 -12   2  16 618.976 83.7308   3
  12  -2  16 990.259 231.380   7
  16  -2  12 688.175 238.221   7
 -16 -12  -2 578.234 80.9233  10
  -1 -16 -12 390.079 82.5380   4
  -1 -12 -16 273.496 91.4336   4
 -16   1  12 442.656 86.3086   3
 -16 -12  -1 707.936 248.022   2
 -12   1  16 602.051 85.3823   3
  16  -1  12 875.529 241.598   7
 -16 -12  -1 317.081 69.9248  10
  16   0  12 467.225 242.455   7
 -16 -12   0 832.625 234.051   2
 -12   0  16 809.478 96.4656   3
   0 -12 -16 775.883 92.6919   4
   0 -16 -12 703.422 87.1710   4
 -12  -1  16 355.706 90.9038   3
   1 -12 -16 354.088 89.1429   4
   1 -16 -12 326.392 76.2085   4
 -12  -2  16 946.052 88.0908   3
 -16 -12   2 957.374 245.400   2
 -12  -2  16 736.178 70.1268  11
   2 -16 -12 759.182 88.5798   4
   2 -12 -16 791.635 81.9167   4
 -12  -3  16 1715.41 83.6053  11
 -16  -3  12 1765.56 90.7158  11
   3 -16 -12 1737.53 90.7354   4
 -16 -12   3 2008.89 240.136   2
   3 -12 -16 1936.37 89.7731   4
 -16 -12   4 1964.79 222.720   2
   4 -12 -16 1679.51 87.1542   4
 -12  -4  16 1720.95 90.6070  11
 -16  -4  12 1557.59 91.9350  11
  16  -4 -12 1706.42 220.782   6
  16 -12  -4 1529.14 241.493   6
   4 -16 -12 1754.49 89.9513   4
 -16 -12   5 1578.20 231.507   2
   5 -12 -16 1691.63 91.9213   4
  12 -16  -5 1514.68 94.3271   9
   5 -16 -12 1580.09 87.8402   9
  -5 -12  16 1553.40 79.4612  11
 -12  -5  16 1503.24 85.5145  11
 -16  -5  12 1614.33 87.8900  11
  16  -5 -12 1592.65 213.729   6
  16 -12  -5 1647.46 237.980   6
   5 -16 -12 1497.28 90.2850   4
  16 -12  -6 1368.12 225.447   6
 -16  -6  12 1260.16 90.6694  11
  -6 -12  16 1408.08 77.9250  11
 -12  -6  16 1283.88 89.4261  11
   6 -16 -12 1429.47 91.3922   9
 -12  -7  16 1132.95 85.8892  11
  -7 -12  16 1281.88 77.2046  11
  16 -12  -7 1129.14 84.7420   9
   7 -16 -12 1257.80 84.2570   9
  -8 -12  16 262.862 68.6885  11
 -16  -8  12-232.920 86.5781  12
 -16 -12   8-178.610 90.2040  12
   8 -16 -12 308.368 78.3751   9
  16 -12  -8 183.197 76.0171   9
 -12  -9  16 979.466 85.5719  11
  -9 -12  16 1164.85 80.4213  11
  16 -12  -9 1094.59 84.3329   9
   9 -16 -12 985.905 83.6481   9
 -16 -12  10-87.0878 83.2003  12
 -16 -10  12-190.274 84.3205  12
 -10 -12  16 489.284 78.0517  11
 -12 -10  16 397.750 80.7707  11
  12 -10 -16 529.257 83.4480   9
  16 -12 -10 537.237 75.7267   9
  10 -16 -12 405.357 83.9335   9
 -12 -11  16 1181.03 78.8123  11
 -11 -12  16 1157.21 75.7325  11
  11 -16 -12 1078.83 81.8653   9
  16 -12 -11 1080.86 78.2794   9
  12 -11 -16 1248.46 84.2361   9
  11 -12 -16 1240.14 83.9840   9
 -12 -12  16 433.453 74.0037  11
  16 -12 -12 398.782 69.1018   9
  12 -12 -16 336.574 78.9632   9
 -13  13  16 259.758 62.2305   3
  13 -13  16 226.411 62.2590   8
  13 -16  13 155.798 53.5630   8
  16 -13  13 180.687 57.7037   8
 -13  12  16 1730.11 83.2027   3
 -12  13  16 1875.40 88.1800   3
  16 -13  12 1710.47 77.5400   8
  16 -12  13 1721.70 75.5248   8
  12 -13  16 1786.30 80.9283   8
  13 -16  12 1739.63 70.3007   8
  13 -12  16 1732.38 75.7889   8
  12 -16  13 1827.78 73.8401   8
 -11  13  16 299.192 80.7987   3
 -13  11  16 247.250 81.8691   3
  11 -13  16 310.123 64.4495   8
  11 -16  13 256.606 56.4003   8
  16 -11  13 266.089 67.1113   8
 -13  10  16 1977.81 103.879   3
  10 -13  16 2250.47 92.3618   8
  13 -10  16 2211.82 93.4717   8
  13  -9  16 239.034 66.4983   8
   9 -13  16 183.449 73.3877   8
 -13   9  16 155.510 91.7566   3
 -16 -13  -9 166.103 79.4323  10
   8 -13  16 855.919 80.3547   8
  13  -8  16 878.430 78.6110   8
 -13   8  16 737.804 87.8816   3
 -16 -13  -8 754.141 76.7115  10
   7 -13  16 203.102 72.0456   8
  13  -7  16 318.035 72.0503   8
 -16 -13  -7 183.340 84.1922  10
 -16   7  13 146.125 75.6835   3
 -13   7  16 236.089 93.2119   3
   6 -13  16 540.518 78.7841   8
  13  -6  16 379.793 73.1902   8
  -6 -16 -13 392.517 81.8150   4
  -6 -13 -16 590.211 83.2917   4
 -16 -13  -6 328.622 81.9603  10
 -16   6  13 372.631 76.4332   3
 -13   6  16 411.682 94.7793   3
   5 -13  16 392.039 77.1981   8
  13  -5  16 362.196 70.6161   8
  -5 -13 -16 410.871 76.6694   4
  -5 -16 -13 300.813 82.6325   4
 -16   5  13 315.563 77.3566   3
 -13   5  16 284.737 84.2137   3
 -16 -13  -5 380.979 74.2798  10
  -4 -13 -16 482.660 88.0078   4
  -4 -16 -13 367.664 86.5774   4
 -16 -13  -4 436.697 73.5659  10
 -16   4  13 375.813 83.4096   3
 -13   4  16 359.215 100.115   3
 -16 -13  -3 1602.62 90.8094  10
  -3 -16 -13 1763.42 100.608   4
  -3 -13 -16 1782.81 101.145   4
  16  -3  13 2008.64 231.667   7
 -16 -13  -3 1450.13 222.726   2
 -16   3  13 1869.12 106.070   3
  -2 -13 -16 206.654 79.3635   4
  -2 -16 -13 123.463 85.3260   4
 -16 -13  -2 158.086 181.918   2
 -16   2  13 149.620 91.9319   3
  13  -2  16 158.279 253.171   7
  16  -2  13 423.622 232.002   7
 -16 -13  -2 202.937 76.9151  10
  -1 -16 -13 1551.17 99.7664   4
  13  -1  16 1808.94 270.515   7
  16  -1  13 1742.63 236.064   7
 -13   1  16 1646.57 100.132   3
 -16 -13  -1 1715.34 257.010   2
  -1 -13 -16 1676.53 101.436   4
  13   0  16 390.037 254.551   7
  16   0  13 351.482 221.434   7
 -16 -13   0 284.130 223.615   2
 -13   0  16 346.132 97.5413   3
   0 -13 -16 357.193 91.3724   4
   0 -16 -13 269.989 87.0224   4
   1 -16 -13 1325.82 96.4131   4
  13   1  16 1379.32 256.151   7
  16   1  13 1272.97 230.257   7
 -13  -1  16 1335.83 89.7946   3
   1 -13 -16 1340.91 96.7235   4
  13   2  16 240.111 219.846   7
 -16 -13   2 353.191 234.337   2
   2 -13 -16 432.932 80.1634   4
   2 -16 -13 199.817 76.1681   4
 -16 -13   3 1487.46 235.433   2
 -13  -3  16 1645.08 85.4851  11
 -16  -3  13 1506.85 90.3721  11
  16 -13  -3 1618.24 222.064   6
  13   3  16 1296.69 214.115   7
   3 -16 -13 1877.27 95.6474   4
   3 -13 -16 1741.39 89.7520   4
   4 -13 -16 421.933 76.9105   4
   4 -16 -13 415.486 79.2557   4
 -16  -4  13 334.379 79.9394  11
 -13  -4  16 431.723 80.6140  11
   4 -16 -13 471.103 75.7694   9
   5 -16 -13 415.180 75.2427   4
   5 -13 -16 399.736 81.7734   4
 -16  -5  13 384.941 83.7315  11
 -13  -5  16 296.130 73.6164  11
   5 -16 -13 369.449 81.7817   9
 -16  -6  13 217.226 73.7849  11
 -13  -6  16 353.109 82.5532  11
   6 -16 -13 210.621 76.6894   9
 -16  -7  13 132.256 77.8661  11
 -16  -7  13-1.32990 85.7224  12
 -13  -7  16 265.820 82.6278  11
   7 -16 -13 221.682 82.5059   9
  13 -16  -7 217.856 81.8757   9
 -13  -8  16 369.579 73.5557  11
  -8 -13  16 415.589 69.2684  11
  16 -13  -8 440.283 78.9759   9
  13 -16  -8 302.410 84.1103   9
   8 -16 -13 510.060 85.2297   9
  -9 -13  16 429.149 71.4761  11
  13  -9 -16 259.649 74.2382   9
   9 -13 -16 184.953 81.5624   9
  13 -16  -9 252.086 80.9148   9
   9 -16 -13 288.755 80.0736   9
 -10 -13  16 2642.12 95.6633  11
 -13 -10  16 2465.03 100.264  11
  13 -16 -10 2408.48 102.520   9
  16 -13 -10 2391.96 95.6063   9
  10 -16 -13 2414.17 98.4531   9
  13 -10 -16 2415.42 96.4170   9
  10 -13 -16 2430.12 100.013   9
 -16 -11  13 20.2817 72.8560  12
 -13 -11  16 146.610 75.9761  11
 -16 -13  11 3.29395 70.8041  12
 -11 -13  16 179.739 63.9841  11
  16 -13 -11 130.707 69.2717   9
  13 -16 -11 183.770 73.1306   9
  13 -11 -16 164.367 76.9721   9
  11 -13 -16 376.245 75.0733   9
 -13 -12  16 1789.82 79.3218  11
 -12 -13  16 1821.84 80.2908  11
  13 -16 -12 1835.14 87.7987   9
  16 -13 -12 1648.60 79.3048   9
  13 -12 -16 1678.26 82.5254   9
  16 -12 -13 1548.77 78.4236   9
  12 -13 -16 1716.40 84.0388   9
  12 -16 -13 1566.62 88.0506   9
  16 -13 -13 64.3835 60.9237   9
  13 -16 -13 156.989 70.1113   9
  13 -13 -16 111.705 68.1173   9
  16 -14  14 214.531 48.2556   8
  14 -16  14 61.8458 43.4877   8
  14 -14  16 117.164 46.0667   8
  14 -13  16 504.523 52.6768   8
  14 -16  13 519.411 49.1083   8
  13 -14  16 578.023 55.6261   8
  16 -14  13 471.951 50.4697   8
  16 -13  14 544.619 58.2745   8
  13 -16  14 447.812 48.4196   8
  14 -12  16 181.357 61.6626   8
  16 -12  14 58.3832 55.5609   8
  14 -16  12 152.993 52.0633   8
  16 -14  12 103.629 56.9237   8
  12 -16  14 143.024 51.4761   8
  12 -14  16 176.363 55.8258   8
 -12  14  16 104.268 64.3922   3
 -14  12  16 168.492 66.2028   3
  16 -14  11 250.642 57.2886   8
  11 -14  16 422.946 64.1950   8
  11 -16  14 320.771 54.4941   8
 -11  14  16 375.955 73.3529   3
 -14  11  16 324.204 71.0173   3
  14 -10  16 269.152 71.7133   8
  16 -10  14 277.997 71.8461   8
  10 -14  16 381.297 61.4193   8
  10 -16  14 375.422 60.8980   8
 -14  10  16 266.054 81.3204   3
   9 -14  16 943.802 70.0484   8
   9 -16  14 838.513 67.4260   8
  14  -9  16 861.889 69.2550   8
  16  -9  14 778.924 69.9908   8
 -14   9  16 711.183 89.7176   3
   8 -14  16 224.918 63.1695   8
  16  -8  14 226.223 76.5673   8
  14  -8  16 231.258 69.2004   8
 -16 -14  -8 219.683 80.3482  10
 -16   8  14 198.198 80.7312   3
 -14   8  16 326.045 81.7129   3
   7 -14  16 284.091 68.6651   8
  14  -7  16 309.896 66.1595   8
 -16   7  14 233.793 76.4403   3
 -14   7  16 272.975 92.9476   3
 -16 -14  -7 194.715 71.5693  10
   6 -14  16 444.169 69.5536   8
  14  -6  16 358.852 71.9528   8
  -6 -14 -16 357.796 80.0160   4
  -6 -16 -14 174.361 77.6854   4
 -16   6  14 329.238 87.6862   3
 -14   6  16 467.782 96.5693   3
 -16 -14  -6 250.849 72.4826  10
  14  -5  16 340.187 66.7750   8
 -16   5  14 317.949 91.7897   3
 -14   5  16 372.217 98.3741   3
  -5 -16 -14 317.111 84.3943   4
  -5 -14 -16 246.148 76.4332   4
 -16 -14  -5 292.190 72.4095  10
 -16   4  14 361.319 83.5933   3
 -14   4  16 481.696 89.1459   3
  -4 -16 -14 421.556 84.8648   4
  -4 -14 -16 604.984 88.1325   4
 -16 -14  -4 366.855 71.5031  10
 -14   3  16 472.174 99.7824   3
 -16   3  14 419.943 93.8140   3
  -3 -16 -14 389.919 86.1326   4
  -3 -14 -16 398.445 88.9380   4
 -16 -14  -3 491.454 77.9632  10
 -16   2  14 1099.50 90.3964   3
  -2 -14 -16 1177.00 86.7913   4
  -2 -16 -14 1166.09 95.2721   4
  -1 -16 -14 129.604 84.4073   4
  -1 -14 -16 234.672 90.5716   4
 -14   0  16 2007.42 111.679   3
   0 -14 -16 1848.59 104.146   4
   0 -16 -14 1824.86 94.3863   4
   1 -16 -14 133.402 85.9494   4
   1 -14 -16 75.6909 87.6043   4
   2 -14 -16 1080.67 86.1662   4
   2 -16 -14 1054.60 88.3413   4
   3 -14 -16 511.049 78.8112   4
   3 -16 -14 492.224 86.7455   4
 -16  -3  14 364.178 76.9869  11
 -14  -3  16 534.457 77.9480  11
   4 -16 -14 424.309 83.6095   4
   4 -14 -16 512.077 77.1680   4
 -14  -4  16 714.431 82.6786  11
 -16  -4  14 425.032 78.6413  11
   4 -16 -14 506.308 76.7377   9
   5 -14 -16 418.463 79.9165   4
   5 -16 -14 374.097 72.2925   4
 -16  -5  14 467.536 83.5352  11
 -14  -5  16 406.328 72.9489  11
   5 -16 -14 419.316 79.4928   9
 -14  -6  16 419.397 81.5703  11
 -16  -6  14 164.878 72.9669  11
   6 -16 -14 347.273 76.7088   9
 -16  -7  14 325.771 76.0463  11
   7 -16 -14 193.101 82.0259   9
 -14  -8  16 127.622 75.7104  11
 -14  -8  16 25.7783 70.8887  12
 -16  -8  14 89.7526 80.6520  12
   8 -14 -16 162.486 76.9740   9
   8 -16 -14 79.3148 81.4567   9
  14 -16  -9 696.212 78.0583   9
   9 -16 -14 877.678 80.9304   9
 -10 -14  16 197.591 61.8877  11
 -16 -10  14 77.6051 72.1642  12
 -14 -10  16 123.361 68.5689  11
  14 -16 -10 112.099 75.8770   9
  10 -16 -14 101.782 71.8574   9
  14 -10 -16 91.9796 69.4158   9
  10 -14 -16 209.196 73.2559   9
 -14 -11  16 442.976 67.5722  11
 -11 -14  16 412.751 62.0522  11
  16 -14 -11 424.388 70.0151   9
  14 -16 -11 375.771 69.2172   9
  14 -11 -16 481.324 70.5388   9
  11 -14 -16 322.275 72.3671   9
  14 -16 -12 171.520 67.3232   9
  16 -12 -14 256.716 61.1170   9
  16 -14 -12 241.937 65.8164   9
  12 -16 -14 322.880 69.7376   9
  14 -12 -16 307.648 63.7019   9
  12 -14 -16 335.560 67.5055   9
  16 -14 -13 509.182 61.1236   9
  14 -16 -13 430.904 60.8061   9
  16 -13 -14 538.128 60.2172   9
  13 -16 -14 494.659 62.9260   9
  14 -13 -16 526.771 64.2036   9
  13 -14 -16 507.409 64.5235   9
  14 -16 -14 289.163 56.9162   9
  14 -14 -16 433.766 58.0235   9
  16 -14  15 290.892 42.3686   8
  16 -15  14 292.887 40.4105   8
  14 -16  15 211.295 37.8731   8
  14 -15  16 276.857 40.7977   8
  15 -14  16 272.646 42.3207   8
  15 -16  14 221.232 38.0813   8
  15 -16  13 498.976 45.7180   8
  13 -16  15 528.608 46.6522   8
  16 -13  15 576.116 52.4590   8
  15 -13  16 608.165 52.2609   8
  16 -15  13 524.718 48.4158   8
  13 -15  16 530.084 48.8546   8
  12 -15  16 688.294 55.1968   8
  12 -16  15 700.485 52.1651   8
  15 -16  12 647.694 48.7364   8
  16 -12  15 766.373 55.4992   8
  16 -15  12 691.623 50.3532   8
 -11  15  16 221.224 60.1353   3
 -15  11  16 247.631 63.8919   3
  11 -15  16 341.344 56.8054   8
  15 -11  16 229.767 57.5446   8
  15 -16  11 197.210 48.7845   8
  11 -16  15 295.335 53.7509   8
  16 -15  11 259.316 54.9423   8
 -15  10  16 1399.45 76.6889   3
  10 -16  15 1376.19 63.8511   8
  10 -15  16 1345.50 66.1457   8
  16 -10  15 1450.86 75.5875   8
  16 -15  10 1341.31 68.1741   8
  15 -10  16 1359.38 69.3768   8
 -16   9  15 290.778 73.1259   3
 -15   9  16 272.500 76.3589   3
  15  -9  16 334.121 68.8346   8
   9 -16  15 341.253 58.4653   8
   9 -15  16 411.037 62.7790   8
  16 -15   9 299.054 59.6952   8
  16  -9  15 356.842 63.1438   8
 -16   8  15 97.6894 77.1115   3
 -15   8  16 170.999 75.7268   3
  16  -8  15 210.168 70.2881   8
   8 -16  15 270.143 58.1412   8
   8 -15  16 261.840 64.3797   8
  15  -8  16 226.898 65.0944   8
 -16   7  15 660.054 78.0956   3
 -15   7  16 633.494 90.7590   3
  16  -7  15 610.271 73.6560   8
  15  -7  16 585.426 70.6626   8
  15  -6  16 167.444 71.1410   8
  16  -6  15 135.284 64.7830   8
  -6 -16 -15 144.879 76.1507   4
  -6 -15 -16 193.519 71.9397   4
 -16   6  15 109.576 82.7607   3
 -15   6  16 141.356 84.0663   3
 -16 -15  -6 232.161 74.3681  10
 -16 -15  -5 820.124 74.5881  10
  -5 -16 -15 825.125 81.4197   4
  16  -5  15 795.851 75.4297   8
  15  -5  16 877.820 72.0021   8
 -16   5  15 824.206 91.5927   3
 -15   5  16 924.366 91.1424   3
  -5 -15 -16 832.037 78.8310   4
 -16   4  15 248.252 83.0051   3
 -15   4  16 272.961 95.9331   3
  -4 -15 -16 359.128 81.7596   4
  -4 -16 -15 261.285 84.1505   4
 -16 -15  -4 145.136 67.1887  10
 -16   3  15 1693.19 104.664   3
 -15   3  16 1769.90 98.3673   3
  -3 -15 -16 1776.91 96.6149   4
  -3 -16 -15 1804.48 98.9302   4
 -15   2  16 344.136 97.6040   3
  -2 -16 -15 267.982 85.9489   4
  -2 -15 -16 219.548 80.3746   4
  -1 -15 -16 1920.21 101.675   4
  -1 -16 -15 1726.11 100.153   4
   0 -16 -15 532.544 86.1686   4
   0 -15 -16 460.418 91.2324   4
   1 -15 -16 1666.74 97.0093   4
   1 -16 -15 1604.43 99.4581   4
   2 -16 -15 275.840 79.2672   4
   2 -15 -16 480.971 83.3387   4
 -15  -3  16 1445.30 80.1611  11
 -16  -3  15 1381.69 83.1207  11
   3 -16 -15 1625.56 92.1379   4
   3 -15 -16 1428.80 86.8606   4
 -16  -4  15 151.762 76.3695  11
 -15  -4  16 164.885 70.0255  11
   4 -16 -15 188.400 73.1809   9
   4 -16 -15 147.612 76.0613   4
   4 -15 -16 255.690 74.1102   4
 -16  -5  15 818.679 77.4465  11
 -15  -5  16 853.996 74.2721  11
   5 -16 -15 894.193 78.0221   4
   5 -15 -16 942.390 81.1679   4
   5 -16 -15 817.130 82.6227   9
 -16  -6  15 162.191 77.4029  11
 -15  -6  16 148.807 75.9648  11
 -16  -6  15 186.106 83.5425  12
   6 -16 -15 119.714 73.7858   9
   6 -15 -16 174.494 81.8417   9
 -15  -7  16 764.345 81.5181  11
   7 -15 -16 708.319 83.6207   9
   7 -16 -15 684.180 76.6405   9
 -15  -8  16 146.825 73.6116  11
 -15  -8  16-49.8301 73.6989  12
   8 -15 -16 181.123 79.1983   9
   8 -16 -15 182.341 72.5024   9
 -15  -9  16-214.785 68.3426  12
 -16  -9  15-214.046 67.7710  12
   9 -16 -15 404.166 71.9044   9
   9 -15 -16 282.591 72.2775   9
  10 -16 -15 1560.59 83.8126   9
  15 -11 -16 380.129 61.0310   9
  11 -15 -16 458.210 70.6524   9
  15 -12 -16 721.144 60.0559   9
  12 -16 -15 744.587 63.4406   9
  13 -15 -16 585.787 57.8128   9
  13 -16 -15 647.889 60.1843   9
  15 -13 -16 574.988 54.4789   9
  16 -13 -15 534.544 54.0755   9
  14 -15 -16 312.278 48.3451   9
  14 -16 -15 265.230 48.2147   9
  15 -14 -16 326.446 47.1140   9
  16 -16  13 85.7227 34.1809   8
  16 -13  16 29.9297 39.4005   8
  16 -16  12 69.3312 38.4870   8
  16 -11  16 72.4243 52.8848   8
  16 -16  11 36.6064 43.1873   8
 -10  16  16 264.143 60.6160   3
 -16  10  16 364.544 63.3179   3
  16 -10  16 336.750 56.9747   8
 -16   9  16 71.9844 64.5676   3
  16  -9  16 29.6467 57.1939   8
 -16   8  16 251.129 71.3974   3
  16  -8  16 192.263 58.3267   8
 -16   7  16 101.339 80.4363   3
  16  -7  16 33.6521 58.7938   8
 -16   6  16 483.179 79.6311   3
  16  -6  16 420.041 66.1012   8
  -6 -16 -16 349.786 69.1780   4
 -16   5  16 58.4248 80.2484   3
  16  -5  16-34.1520 59.5723   8
  -5 -16 -16 14.2716 75.0720   4
  -4 -16 -16 422.010 76.5703   4
 -16   4  16 424.707 87.2241   3
  -3 -16 -16 104.795 76.9503   4
 -16   3  16-58.3608 92.9362   3
  -2 -16 -16 594.402 81.0181   4
  -1 -16 -16 237.497 83.0764   4
   0 -16 -16 1071.78 91.0585   4
   1 -16 -16 165.125 78.5977   4
   2 -16 -16 1089.13 88.7002   4
   3 -16 -16 139.107 75.0639   4
 -16  -3  16 17.0362 68.7519  11
   3 -16 -16 126.806 72.2577   9
   4 -16 -16 440.692 76.2892   4
 -16  -4  16 466.068 70.5358  11
   4 -16 -16 533.576 76.8875   9
   5 -16 -16 10.9876 69.9056   4
   5 -16 -16 107.636 71.0713   9
 -16  -5  16-44.7378 74.3813  11
   6 -16 -16 429.703 76.8049   9
 -16  -6  16-74.7381 69.5179  12
   7 -16 -16 86.4016 74.5117   9
 -16  -7  16 100.383 70.3794  12
   8 -16 -16 153.450 72.5307   9
 -16  -8  16-151.734 65.9186  12
   9 -16 -16 100.369 68.6612   9
 -16  -9  16-105.365 65.2867  12
  10 -16 -16 121.975 64.1902   9
 -16 -10  16-160.394 57.3911  12
  12 -16 -16 164.152 53.4544   9
  13 -16 -16 71.2549 48.9070   9
   0   0 -17 52.1040 162.967   5
   1   1 -17 206.568 175.311   5
  -1  -1 -17 112.582 164.821   5
   0  -1 -17 224.716 189.071   5
   1   0 -17 52.3339 186.549   5
   0   1 -17 408.655 182.097   5
  -1   0 -17 362.155 188.974   5
   1  -1 -17 207.696 199.544   5
  -1   1 -17-101.593 159.771   5
 -17  -2  -2 109.768 203.065   2
  -2  -2 -17 40.6197 206.205   5
 -17  -2  -1 20.9765 229.473   2
  -1  -2 -17 247.168 182.745   5
  -2  -1 -17 173.130 200.250   5
 -17  -2   0 252.708 230.159   2
   2   0 -17 191.880 187.505   5
   0  -2 -17-5.03624 187.499   5
  -2   0 -17 67.4931 182.981   5
   2  -1 -17 436.821 204.598   5
   1  -2 -17 503.938 208.232   5
  -2   1 -17 564.140 187.235   5
 -17  -2   2-47.2863 212.119   2
   2  -2 -17-35.7910 207.696   5
 -17  -3  -3 127.067 207.733   2
  -3  -3 -17 89.8056 214.928   5
 -17  -3  -2 15.4264 198.001   2
 -17  -2  -3 320.990 177.137   2
  -2  -3 -17 151.253 181.555   5
  -3  -2 -17 72.3862 180.232   5
  -1  -3 -17 1498.62 230.051   5
  -3  -1 -17 1578.62 194.663   5
 -17  -3  -1 1671.77 237.002   2
 -17  -1  -3 1131.94 231.769   2
  17  -1   3 1317.41 209.735   7
 -17  -3   0 431.580 192.837   2
   3   0 -17 435.881 184.405   5
   0  -3 -17 551.262 207.980   5
  -3   0 -17 407.523 196.795   5
   3  -1 -17 1401.46 214.050   5
   1  -3 -17 1156.57 196.087   5
  -3   1 -17 1434.36 187.644   5
 -17  -3   2 665.010 230.160   2
 -17  -2   3 356.439 223.616   2
   3  -2 -17 164.755 196.168   5
   2  -3 -17 26.3595 185.724   5
 -17  -3   3 205.853 193.426   2
   3  -3 -17-227.667 209.532   5
  -4  -4 -17-27.4895 215.184   5
 -17  -4  -4-187.649 209.500   2
  17  -4   4-25.4027 209.566   7
  -3  -4 -17 5.40522 201.765   5
  -4  -3 -17 59.2019 188.350   5
 -17  -4  -3-92.5059 219.469   2
 -17  -3  -4-35.3395 185.994   2
  17  -3   4 112.145 189.773   7
  -2  -4 -17 438.210 220.926   5
  -4  -2 -17 632.812 212.106   5
 -17  -2  -4 311.652 190.596   2
 -17  -4  -2 1022.32 228.261   2
  17  -2   4 670.214 208.550   7
  -1  -4 -17 1037.26 215.343   5
  -4  -1 -17 826.316 217.383   5
 -17  -1  -4 997.974 222.604   2
 -17  -4  -1 1177.88 201.510   2
  17  -1   4 1009.46 200.745   7
 -17  -4   0 664.984 218.695   2
   4   0 -17 287.631 168.243   5
  -4   0 -17 211.307 177.667   5
   0  -4 -17 277.654 185.792   5
 -17  -1   4 1278.93 208.683   2
  -4   1 -17 1348.87 208.984   5
   1  -4 -17 1333.39 218.890   5
   4  -1 -17 1433.67 190.645   5
 -17  -2   4 690.786 223.134   2
 -17  -4   2 611.964 213.071   2
   2  -4 -17 308.836 198.913   5
  -4   2 -17 530.157 194.584   5
   4  -2 -17 540.738 197.622   5
 -17  -4   3 25.7851 195.718   2
 -17  -3   4 10.1699 177.895   2
   3  -4 -17-212.237 194.260   5
   4  -3 -17 139.158 212.607   5
 -17  -4   4-255.556 202.388   2
   4  -4 -17 165.490 221.564   5
  -5  -5 -17-171.050 232.136   5
 -17  -5  -5-65.5799 181.258   2
  17  -5   5 419.131 239.626   7
  -4  -5 -17 112.096 225.363   5
 -17  -5  -4 312.672 211.666   2
 -17  -4  -5 470.657 169.797   2
  17  -4   5 426.498 232.621   7
  -5  -3 -17 597.256 219.830   5
 -17  -5  -3 616.527 211.247   2
 -17  -3  -5 579.203 200.581   2
  17  -3   5 1069.64 229.969   7
  -5  -2 -17 751.086 224.713   5
 -17  -2  -5 462.950 200.026   2
 -17  -5  -2 640.401 229.338   2
  17  -2   5 742.487 225.219   7
  -5  -1 -17 1034.79 220.792   5
 -17  -1  -5 1020.21 183.030   2
 -17  -5  -1 1184.99 214.392   2
  17  -1   5 1025.03 210.513   7
 -17  -5   0 564.323 230.647   2
  -5   0 -17 428.522 210.924   5
   5   0 -17 138.281 194.922   5
 -17  -1   5 595.309 197.226   2
   1  -5 -17 761.032 206.040   5
  -5   1 -17 830.806 187.777   5
   5  -1 -17 659.772 209.631   5
 -17  -2   5 726.619 209.865   2
 -17  -5   2 786.863 194.632   2
   2  -5 -17 589.227 198.870   5
   5  -2 -17 590.676 203.606   5
 -17  -5   3 508.490 222.018   2
 -17  -3   5 560.033 207.475   2
   3  -5 -17 385.197 213.953   5
   5  -3 -17 358.167 216.949   5
 -17  -5   4 195.251 218.533   2
 -17  -4   5 550.501 177.318   2
   5  -4 -17 228.533 210.554   5
   4  -5 -17 197.387 224.734   5
 -17  -5   5 137.058 188.569   2
   5  -5 -17-199.872 230.254   5
  -6  -6 -17 144.884 231.308   5
  17  -6   6-53.4573 198.317   7
  -5  -6 -17 138.284 232.409   5
  -6  -5 -17 257.991 201.840   5
 -17  -6  -5 332.434 204.699   2
  17  -5   6 199.585 241.159   7
  17  -6   5-59.5182 196.491   7
  -4  -6 -17 284.825 200.104   5
 -17  -6  -4 248.764 205.273   2
  17  -4   6 138.250 217.294   7
  -6  -3 -17 694.099 234.398   5
  -3  -6 -17 584.770 227.818   5
 -17  -6  -3 689.767 188.692   2
  17  -3   6 772.739 211.258   7
  -6  -2 -17 528.427 196.185   5
  -2  -6 -17 485.230 203.162   5
 -17  -6  -2 557.825 214.983   2
  17  -2   6 633.373 223.847   7
  -1  -6 -17 701.290 226.256   5
  -6  -1 -17 341.605 186.931   5
 -17  -6  -1 126.638 220.260   2
  17  -1   6 144.154 206.859   7
 -17   0   6 210.405 202.046   2
 -17  -6   0 63.5224 228.839   2
   0  -6 -17 123.141 218.930   5
   6   0 -17 326.028 196.732   5
 -17  -1   6 127.027 190.423   2
   1  -6 -17 163.633 218.419   5
   6  -1 -17 62.0758 200.862   5
 -17  -2   6 428.760 199.196   2
 -17  -6   2 89.4314 207.234   2
   6  -2 -17 58.6786 213.909   5
 -17  -6   3 774.712 234.681   2
 -17  -3   6 889.414 175.056   2
   6  -3 -17 702.505 213.079   5
 -17  -6   4-51.8345 224.135   2
 -17  -4   6 377.840 200.918   2
   6  -4 -17 230.941 196.363   5
 -17  -6   5 174.153 208.658   2
 -17  -5   6-254.392 207.517   2
   6  -5 -17-201.736 226.090   5
 -17  -6   6 256.764 194.827   2
   6  -6 -17 170.407 228.261   5
  -6  -7 -17 1358.26 222.245   5
  17  -6   7 1086.67 239.175   7
  -5  -7 -17 709.290 214.825   5
 -17  -7  -5 457.717 212.887   2
  17  -5   7 511.419 251.502   7
  -4  -7 -17 622.591 237.053   5
 -17  -7  -4 258.308 183.353   2
  17  -4   7 107.183 232.124   7
  -3  -7 -17 1023.72 205.260   5
 -17  -7  -3 813.780 194.431   2
  17  -3   7 948.071 220.915   7
  -2  -7 -17 578.234 233.309   5
 -17  -7  -2 743.758 200.812   2
  17  -2   7 504.831 222.449   7
  -1  -7 -17 175.430 198.338   5
 -17  -7  -1-75.1256 232.837   2
  17  -1   7 276.894 226.836   7
   0  -7 -17 664.146 200.465   5
 -17  -7   0 161.168 226.355   2
  17   0   7 638.184 223.675   7
   1  -7 -17 414.333 215.845   5
 -17  -7   2 448.822 225.899   2
   2  -7 -17 410.933 194.573   5
 -17  -7   3 1285.29 239.279   2
   3  -7 -17 1042.74 237.219   5
   4  -7 -17 485.928 227.172   5
 -17  -7   4 315.629 215.432   2
  17  -4  -7 219.397 192.765   6
   5  -7 -17 598.855 244.033   5
 -17  -7   5 545.147 220.436   2
  17  -5  -7 540.691 226.298   6
   6  -7 -17 1442.72 255.043   5
  17  -6  -7 1143.37 248.794   6
 -17  -7   6 1279.53 189.994   2
  17  -7  -7 200.118 230.011   6
   8  -8  17 203.471 78.3356   8
 -17  -8  -8 155.923 77.3650  10
  17  -8   8 457.560 245.098   7
   7  -8  17 1552.07 90.2282   8
   8  -7  17 1658.13 92.5025   8
  17  -8   7 1777.57 227.328   7
 -17  -8  -7 1451.63 93.4496  10
 -17  -7  -8 1663.63 96.7417  10
  -6  -8 -17 1217.29 237.959   5
  17  -6   8 1044.22 262.226   7
  -5  -8 -17 946.446 206.995   5
 -17  -8  -5 728.442 219.606   2
  17  -5   8 680.536 208.969   7
  -4  -8 -17 459.171 234.427   5
 -17  -8  -4 1056.41 194.568   2
  17  -4   8 884.980 256.236   7
  -3  -8 -17 242.322 216.680   5
 -17  -8  -3 341.378 209.317   2
  17  -3   8 805.419 246.906   7
  -2  -8 -17 5.72270 224.334   5
 -17  -8  -2 305.524 190.406   2
  17  -2   8 334.619 243.461   7
  -1  -8 -17 2182.77 219.369   5
 -17  -8  -1 1970.10 260.054   2
  17  -1   8 1963.74 241.713   7
   0  -8 -17 407.614 208.906   5
 -17  -8   0 301.164 229.199   2
  17   0   8 123.025 222.935   7
   1  -8 -17 1780.59 240.354   5
 -17  -8   2 1142.99 244.001   2
   2  -8 -17 790.973 208.481   5
   3  -8 -17-53.2430 227.277   5
 -17  -8   3 280.989 218.075   2
  17  -3  -8 219.409 181.850   6
   4  -8 -17 1281.26 234.078   5
 -17  -8   4 1218.24 211.635   2
  17  -4  -8 1444.02 213.813   6
   5  -8 -17 1115.27 256.473   5
 -17  -8   5 1615.16 231.980   2
  17  -5  -8 1181.95 244.196   6
   6  -8 -17 1692.97 259.300   5
  17  -8  -6 1191.22 255.150   6
  17  -6  -8 1420.85 252.640   6
 -17  -8   6 1169.71 188.475   2
  -7  -8  17 1969.53 88.9851  11
  17  -8  -7 2186.65 227.938   6
  17  -7  -8 2005.99 267.541   6
   7  -8 -17 2021.91 255.131   5
   8 -17  -7 1986.64 96.5269   9
   7 -17  -8 1996.24 90.4562   9
  17  -8  -8 100.807 235.430   6
 -17  -8   8 31.9076 78.9220  12
  -8  -8  17 312.203 85.4396  11
   8 -17  -8 244.202 82.9411   9
 -17  -9  -9 189.045 86.2102  10
   9  -9  17-149.540 68.9680   8
   8  -9  17 325.288 78.1734   8
   9  -8  17 320.416 68.2650   8
 -17  -9  -8 239.596 85.0433  10
 -17  -8  -9 337.527 74.8624  10
  17  -8   9 413.365 229.177   7
  17  -9   8 175.168 221.245   7
   7  -9  17 630.983 83.5832   8
   9  -7  17 462.505 80.4706   8
  17  -7   9 683.754 218.822   7
   9  -7  17 544.065 208.481   7
 -17  -7  -9 534.571 74.1747  10
 -17  -9  -7 646.748 87.4127  10
 -17  -6  -9 450.366 71.7998  10
  -6 -17  -9 287.649 79.7936   4
  -6  -9 -17 391.512 81.8221   4
   9  -6  17 352.256 69.6208   8
   6  -9  17 404.206 81.1335   8
  17  -6   9 210.750 237.170   7
  -6  -9 -17 398.322 197.516   5
  17  -5   9 492.232 251.760   7
 -17  -9  -5 326.142 214.922   2
  -5  -9 -17 542.124 207.402   5
  17  -4   9 1244.25 229.538   7
 -17  -9  -4 1311.47 211.816   2
  -4  -9 -17 1215.48 245.548   5
  17  -3   9 1259.29 220.583   7
 -17  -9  -3 1382.99 234.478   2
  -3  -9 -17 1090.29 207.761   5
  17  -2   9 3315.21 261.426   7
 -17  -9  -2 3457.88 248.402   2
  -2  -9 -17 3864.04 273.997   5
  17  -1   9 751.327 237.744   7
 -17  -9  -1 1074.33 241.831   2
  -1  -9 -17 833.869 218.190   5
  17   0   9 1193.59 233.782   7
 -17  -9   0 1459.32 222.645   2
   0  -9 -17 1470.77 214.339   5
   1  -9 -17 687.608 205.066   5
 -17  -9   2 3709.31 280.788   2
   2  -9 -17 3069.38 253.622   5
 -17  -9   3 438.813 206.586   2
   3  -9 -17 332.909 234.432   5
  17  -3  -9-28.9521 193.546   6
 -17  -9   4 985.782 196.436   2
   4  -9 -17 656.341 211.748   5
  17  -4  -9 911.515 219.035   6
 -17  -9   5 228.672 209.886   2
  17  -5  -9 152.374 227.420   6
   5  -9 -17 221.270 213.663   5
  -6  -9  17 227.223 77.4592  11
 -17  -9   6-95.7116 90.4812  12
  -9  -6  17 109.985 69.9344  11
 -17  -6   9 4.96303 85.5380  12
   9 -17  -6 284.710 80.1955   9
   6 -17  -9 202.888 76.4247   9
 -17  -9   6 238.447 181.126   2
  17  -6  -9 266.479 226.849   6
   6  -9 -17 265.353 215.371   5
  -7  -9  17 1067.88 77.8094  11
  17  -7  -9 1467.95 229.329   6
   7  -9 -17 1067.27 216.418   5
   9 -17  -7 1109.12 81.7925   9
   7 -17  -9 1168.82 87.5945   9
  -8  -9  17 739.683 86.0259  11
  -9  -8  17 553.554 75.1128  11
  17  -8  -9 614.442 237.507   6
   9 -17  -8 544.490 86.3296   9
   8 -17  -9 602.808 83.7127   9
   8  -9 -17 611.857 242.743   5
  -9  -9  17 51.6177 75.2300  11
   9 -17  -9 67.7262 75.5945   9
 -17 -10 -10-9.34226 72.0378  10
  10 -10  17 71.1221 78.8834   8
 -17 -10  -9 202.990 72.8690  10
 -17  -9 -10 308.249 82.3237  10
   9 -10  17 130.272 78.7202   8
  10  -9  17 257.100 71.3400   8
 -17 -10  -8-29.6972 74.1499  10
 -17  -8 -10-17.3917 84.4550  10
 -10   8  17 19.5100 96.7678   3
  10  -8  17 133.764 67.6865   8
  10  -7  17 1790.75 94.4839   8
 -17  -7 -10 1964.53 97.2830  10
 -17  -6 -10 1091.39 85.8015  10
 -17 -10  -6 894.413 91.6704  10
  -6 -17 -10 837.351 87.0124   4
  -6 -10 -17 952.107 84.5696   4
  10  -6  17 944.792 75.2222   8
  10  -6  17 1132.23 213.045   7
 -10   6  17 842.292 102.244   3
 -17 -10  -5 915.147 214.183   2
  -5 -10 -17 1212.42 225.291   5
  -5 -17 -10 1202.87 86.5674   4
 -17 -10  -5 940.933 83.9304  10
 -17  -5 -10 930.481 75.8102  10
  -5 -10 -17 1032.60 90.2328   4
   5 -10  17 957.763 86.0799   8
  10  -5  17 998.912 80.9118   8
  17  -5  10 1310.39 269.831   7
  10  -5  17 1048.17 249.110   7
 -10   5  17 1009.11 86.3641   3
 -17 -10  -4 983.531 213.254   2
  -4 -10 -17 1039.77 201.805   5
  -4 -17 -10 1089.81 91.3627   4
 -17 -10  -4 863.827 90.7783  10
  -4 -10 -17 865.525 91.1897   4
   4 -10  17 848.426 86.3997   8
  17  -4  10 702.569 218.594   7
 -10   4  17 939.051 98.2158   3
  -3 -17 -10 1601.90 97.6377   4
  -3 -10 -17 1384.73 235.764   5
 -17 -10  -3 1189.71 88.2994  10
 -17 -10  -3 1676.72 243.982   2
 -10   3  17 1452.16 102.520   3
  17  -3  10 1556.69 258.841   7
  -3 -10 -17 1453.19 97.9217   4
  -2 -10 -17 337.919 188.299   5
 -17 -10  -2 325.693 216.720   2
  17  -2  10 479.364 240.210   7
  -1 -10 -17 1285.18 227.701   5
 -17 -10  -1 632.512 233.490   2
  17  -1  10 568.678 216.741   7
   0 -10 -17 333.196 226.019   5
 -17 -10   0 220.412 196.717   2
  17   0  10 240.158 237.184   7
   1 -10 -17 410.883 232.433   5
 -17 -10   2 218.432 234.504   2
   2 -10 -17 193.448 226.694   5
 -10  -3  17 711.921 80.9637  11
  -3 -10  17 616.597 70.6444  11
   3 -10 -17 631.631 198.446   5
 -17 -10   3 741.944 197.789   2
   3 -17 -10 586.271 82.8041   4
   3 -10 -17 675.947 85.5721   4
 -17 -10   4 649.587 191.708   2
   4 -10 -17 336.603 77.7511   4
   4 -17 -10 465.283 76.0854   4
 -10  -4  17 286.475 69.6626  11
  -4 -10  17 492.772 70.8186  11
  17  -4 -10 497.102 218.828   6
   4 -10 -17 398.041 230.529   5
 -17 -10   5 465.275 206.310   2
   5 -17 -10 390.260 76.1426   4
   5 -10 -17 459.751 78.8821   4
 -10  -5  17 562.579 79.3872  11
  -5 -10  17 509.722 71.4038  11
  10 -17  -5 560.675 85.1959   9
  17 -10  -5 418.300 194.479   6
  17  -5 -10 595.635 235.726   6
   5 -10 -17 475.398 238.307   5
  -6 -10  17 571.520 76.6691  11
 -10  -6  17 615.893 81.2754  11
  10 -17  -6 592.762 87.4262   9
   6 -17 -10 599.479 76.5740   9
 -17 -10   6 467.392 196.628   2
  17 -10  -6 797.967 219.474   6
  17  -6 -10 531.885 211.366   6
   6 -10 -17 755.908 237.562   5
  10 -17  -7 1151.23 85.6572   9
   7 -17 -10 1290.61 90.6146   9
  -7 -10  17 1361.82 88.7903  11
 -10  -7  17 1213.18 81.0286  11
  17 -10  -7 1132.13 247.487   6
  -8 -10  17 108.596 81.2378  11
  10 -17  -8 91.1764 83.3551   9
   8 -17 -10 7.44853 76.0905   9
  -9 -10  17 200.181 71.6449  11
 -10  -9  17 63.7427 80.7640  11
 -17 -10   9 303.332 84.7005  12
  10 -17  -9 122.385 76.2935   9
   9 -17 -10 180.438 76.9895   9
 -10 -10  17 69.6025 79.4179  11
 -17 -10  10 57.8569 88.4699  12
  10 -17 -10-86.0904 76.3021   9
 -11  11  17-45.4249 82.0578   3
 -17 -11 -11-43.5735 70.7470  10
  11 -10  17 189.528 70.4875   8
 -11  10  17 126.570 83.8369   3
 -17 -11 -10 212.522 82.4380  10
 -17 -10 -11 240.538 81.1600  10
   9 -11  17 874.074 74.5865   8
  11  -9  17 952.537 83.3205   8
 -11   9  17 894.824 92.1162   3
 -17  -9 -11 818.299 79.9537  10
 -17 -11  -9 813.079 87.6776  10
  11  -8  17 128.258 79.1755   8
   8 -11  17 95.5210 68.4903   8
 -11   8  17 120.803 92.2520   3
 -17  -8 -11 206.645 73.0391  10
   7 -11  17 2635.93 105.202   8
  11  -7  17 2696.49 103.597   8
 -17  -7 -11 2514.83 102.508  10
 -17 -11  -7 2489.22 101.082  10
 -11   7  17 2831.23 120.452   3
   6 -11  17 758.072 73.7145   8
  11  -6  17 755.585 74.4993   8
  -6 -11 -17 824.692 82.4332   4
  -6 -17 -11 782.047 85.5345   4
 -17  -6 -11 895.452 82.8003  10
 -17 -11  -6 655.238 89.1465  10
  -5 -17 -11 2623.94 101.662   4
 -17 -11  -5 2413.36 99.0970  10
  -5 -11 -17 2486.96 107.777   4
   5 -11  17 2626.43 101.750   8
  11  -5  17 2389.37 91.9759   8
  17  -5  11 2538.73 280.380   7
  11  -5  17 2546.38 262.147   7
 -11   5  17 2250.20 107.220   3
 -11   4  17 786.817 96.5807   3
 -17 -11  -4 648.686 84.3832  10
  -4 -11 -17 832.836 89.7175   4
  -4 -17 -11 694.114 90.3043   4
   4 -11  17 749.533 80.7351   8
  17  -4  11 431.885 215.759   7
  11  -4  17 608.810 251.746   7
 -17 -11  -4 973.049 223.177   2
  -3 -17 -11 1693.68 100.132   4
 -17 -11  -3 1594.32 94.5208  10
 -17 -11  -3 1706.38 247.770   2
  -3 -11 -17 1669.29 100.342   4
  17  -3  11 1820.76 250.443   7
 -11   3  17 1786.09 108.833   3
 -17 -11  -2 447.347 80.6720  10
 -17 -11  -2 763.152 232.970   2
  -2 -11 -17 540.479 90.7738   4
  -2 -17 -11 528.143 81.2344   4
  17  -2  11 643.190 233.133   7
 -11   2  17 687.155 95.5493   3
  -1 -11 -17 348.106 222.439   5
 -17 -11  -1 778.939 74.5904  10
 -17 -11  -1 643.068 230.862   2
  -1 -11 -17 711.097 90.6876   4
  -1 -17 -11 758.518 92.3514   4
  17  -1  11 583.905 209.029   7
 -11   1  17 742.591 81.3810   3
   0 -11 -17 259.766 211.483   5
 -17 -11   0 462.815 80.0094  10
 -17 -11   0 301.901 196.379   2
  17   0  11 294.994 237.509   7
   0 -11 -17 353.996 86.0390   4
   0 -17 -11 294.224 88.7168   4
 -11   0  17 513.637 93.1674   3
   1 -11 -17 823.492 218.375   5
 -11  -1  17 739.728 90.6065   3
   1 -17 -11 676.694 90.9336   4
   1 -11 -17 714.231 93.1979   4
   2 -17 -11 436.310 77.6266   4
   2 -11 -17 605.227 80.5116   4
 -11  -2  17 442.665 78.6771  11
  -2 -11  17 525.972 76.2725  11
 -17 -11   2 563.607 241.595   2
 -11  -2  17 690.449 87.0642   3
   2 -11 -17 712.291 222.855   5
 -17 -11   3 1457.01 200.731   2
   3 -11 -17 1267.31 93.7786   4
  -3 -11  17 1226.42 76.5169  11
 -11  -3  17 1355.88 86.3673  11
   3 -11 -17 1027.57 205.075   5
   3 -17 -11 1347.62 88.0004   4
  -4 -11  17 672.437 70.7896  11
 -11  -4  17 675.979 72.7897  11
   4 -17 -11 714.500 75.8665   4
   4 -11 -17 643.052 83.2941   4
 -17 -11   4 885.303 197.840   2
  17 -11  -4 838.003 212.600   6
  17  -4 -11 555.486 220.465   6
   4 -11 -17 687.705 235.083   5
 -17 -11   5 1950.38 212.952   2
   5 -11 -17 1907.89 91.4136   4
   5 -17 -11 1954.35 92.9610   9
  -5 -11  17 1911.51 88.9715  11
 -11  -5  17 2022.62 96.5368  11
  17 -11  -5 1967.02 239.207   6
   5 -11 -17 1688.48 242.781   5
   5 -17 -11 1914.54 94.1218   4
 -11  -6  17 729.300 86.7940  11
  -6 -11  17 749.876 75.0376  11
  11 -17  -6 696.534 88.2110   9
   6 -17 -11 680.353 78.1586   9
  -7 -11  17 2814.39 103.196  11
 -11  -7  17 3024.65 109.963  11
  11 -17  -7 2915.70 107.465   9
   7 -17 -11 3100.44 112.089   9
  -8 -11  17 157.255 70.7851  11
 -17 -11   8-60.7830 83.5223  12
  11 -17  -8 126.806 84.9297   9
   8 -17 -11 263.929 81.5720   9
  -9 -11  17 510.687 79.6929  11
 -11  -9  17 435.316 72.8877  11
  11 -17  -9 475.404 82.5550   9
   9 -17 -11 450.981 80.7847   9
 -17 -11  10-114.553 75.3106  12
 -10 -11  17 160.421 74.7066  11
 -11 -10  17 70.0274 70.0151  11
 -17 -10  11 108.221 85.6004  12
  11 -17 -10 69.3892 81.1353   9
  10 -17 -11 49.2414 81.1737   9
 -17 -11  11-4.17393 73.1477  12
 -11 -11  17 50.1876 67.6216  11
  11 -11 -17 81.9320 73.9200   9
  11 -17 -11 29.1622 76.6602   9
  17 -12  12 9.34039 66.1176   8
  12 -12  17-62.9720 58.8121   8
 -12  12  17 91.6124 70.4330   3
  11 -12  17 224.872 69.3010   8
 -12  11  17 271.112 83.9391   3
 -11  12  17 124.924 75.3268   3
  12 -10  17 536.793 75.9459   8
  10 -12  17 472.972 67.5284   8
 -17 -12 -10 491.762 80.4674  10
 -12  10  17 560.464 91.3795   3
  12  -9  17 772.464 70.0209   8
   9 -12  17 753.586 78.4591   8
 -17  -9 -12 759.753 76.0985  10
 -12   9  17 854.455 93.3646   3
  12  -8  17 107.314 66.3048   8
   8 -12  17 87.8706 74.1322   8
 -17  -8 -12 180.231 70.0336  10
 -17 -12  -8 175.593 82.2650  10
 -12   8  17 198.112 91.3695   3
   7 -12  17 1449.51 79.3888   8
  12  -7  17 1515.96 83.1231   8
 -12   7  17 1522.82 97.0375   3
 -17 -12  -7 1471.20 84.8515  10
 -17  -7 -12 1617.47 83.4829  10
  12  -6  17 631.881 77.8377   8
   6 -12  17 779.522 81.2522   8
  -6 -17 -12 652.821 77.2805   4
  -6 -12 -17 625.929 79.6007   4
 -12   6  17 457.686 87.7334   3
 -17 -12  -6 725.176 86.2391  10
  12  -5  17 595.436 77.3713   8
   5 -12  17 680.076 82.1596   8
 -17 -12  -5 608.046 85.5949  10
 -17   5  12 598.711 85.8104   3
  -5 -17 -12 673.716 81.9353   4
  -5 -12 -17 707.871 86.8009   4
 -17 -12  -4 524.794 81.2246  10
 -17   4  12 515.019 82.6554   3
  -4 -12 -17 417.046 85.9702   4
  -4 -17 -12 495.344 79.6034   4
  -3 -12 -17 1387.97 95.4833   4
  -3 -17 -12 1397.07 87.8489   4
 -12   3  17 1251.24 105.596   3
 -17 -12  -3 1317.31 88.4996  10
  -2 -17 -12 44.5413 83.7555   4
  -2 -12 -17 105.494 90.0987   4
 -12   2  17 29.4134 95.9459   3
  12  -2  17 117.110 247.851   7
 -17 -12  -2 159.647 80.5837  10
 -17 -12  -1 1005.00 77.0118  10
  -1 -17 -12 1169.60 89.8954   4
  12  -1  17 1580.25 262.313   7
  17  -1  12 1301.93 246.629   7
 -17 -12  -1 1236.55 228.922   2
 -12   1  17 1325.41 94.9172   3
  -1 -12 -17 1114.66 93.6930   4
  17   0  12-93.3438 222.039   7
 -17 -12   0 198.774 189.490   2
 -12   0  17-47.4090 90.4893   3
   0 -17 -12 62.7306 86.7057   4
   0 -12 -17 160.134 83.3082   4
 -12  -1  17 999.399 84.5768   3
   1 -17 -12 840.076 82.4345   4
   1 -12 -17 894.942 93.8506   4
 -12  -2  17 187.857 85.6138   3
 -17 -12   2-11.2194 231.742   2
   2 -17 -12 84.0441 85.9909   4
   2 -12 -17 221.419 81.9682   4
 -12  -2  17 111.115 69.4950  11
   3 -17 -12 911.652 81.9478   4
 -12  -3  17 751.099 76.9152  11
   4 -12 -17 250.761 82.2826   4
   4 -17 -12 245.200 79.1049   4
  -4 -12  17 142.118 66.5933  11
 -12  -4  17 320.524 70.5058  11
   5 -17 -12 528.727 81.0504   4
   5 -12 -17 551.690 73.8604   4
  -5 -12  17 536.266 69.6280  11
 -12  -5  17 623.471 82.5153  11
   5 -17 -12 413.237 75.4956   9
  -6 -12  17 411.600 71.3551  11
 -12  -6  17 314.874 82.9523  11
   6 -17 -12 399.578 81.3497   9
 -12  -7  17 1724.04 94.0224  11
  -7 -12  17 1551.81 81.0674  11
  12 -17  -7 1560.38 88.6400   9
   7 -17 -12 1570.92 87.2220   9
 -17  -8  12-104.435 84.9548  12
  -8 -12  17 259.001 67.2569  11
 -17 -12   8-265.597 87.6560  12
 -12  -8  17 90.1606 71.1465  11
  12 -17  -8 210.129 77.1419   9
   8 -17 -12 121.454 78.8507   9
 -12  -9  17 940.950 84.9669  11
  -9 -12  17 794.460 71.7056  11
  12 -17  -9 801.005 82.7575   9
   9 -17 -12 904.933 82.7100   9
 -17 -10  12-196.365 81.1056  12
 -10 -12  17 262.589 73.5408  11
 -12 -10  17 307.262 77.9434  11
 -17 -12  10-258.892 81.6172  12
  12 -10 -17 372.337 73.3038   9
  10 -12 -17 348.982 79.9291   9
  12 -17 -10 309.934 73.1776   9
  10 -17 -12 438.469 74.6752   9
 -17 -11  12-168.977 77.3847  12
 -12 -11  17 79.8508 71.5627  11
 -17 -12  11-109.008 71.7879  12
 -11 -12  17 120.815 67.5550  11
  12 -11 -17 79.1011 75.5914   9
  11 -12 -17 197.596 72.5991   9
  12 -17 -11 96.9580 73.9856   9
  11 -17 -12 54.9034 74.9759   9
 -12 -12  17 45.2153 65.4030  11
 -17 -12  12-169.361 70.7783  12
  12 -12 -17 36.9914 70.3990   9
  17 -13  13 28.8119 47.8221   8
  13 -13  17 97.9775 54.7516   8
 -13  13  17 5.56051 55.7730   3
  13 -12  17 361.635 55.8121   8
  17 -12  13 410.154 56.2191   8
  17 -13  12 394.341 57.5458   8
  12 -13  17 407.696 61.7775   8
 -13  12  17 259.725 64.3154   3
 -12  13  17 532.664 66.7505   3
  13 -11  17 114.507 59.3105   8
  17 -13  11 167.943 61.1876   8
  11 -13  17 214.386 65.2219   8
 -11  13  17 318.467 72.6874   3
 -13  11  17 115.021 76.8276   3
  13 -10  17 111.411 68.7794   8
  17 -10  13 58.5049 69.5239   8
  10 -13  17 124.093 60.5271   8
 -13  10  17 50.3459 82.7975   3
   9 -13  17 872.579 71.1145   8
  13  -9  17 988.176 69.8040   8
 -17 -13  -9 1044.06 84.4216  10
 -13   9  17 967.321 93.6945   3
  13  -8  17 364.317 66.2376   8
   8 -13  17 385.730 67.9544   8
 -17 -13  -8 299.117 75.2116  10
 -13   8  17 412.202 84.2659   3
   7 -13  17 2984.71 100.588   8
  13  -7  17 2776.29 99.3294   8
 -13   7  17 3146.95 123.110   3
 -17 -13  -7 3119.82 110.141  10
   6 -13  17 737.587 77.8833   8
  13  -6  17 809.646 77.6510   8
  -6 -13 -17 687.069 79.9718   4
  -6 -17 -13 765.089 82.5377   4
 -17   6  13 628.210 80.9708   3
 -13   6  17 733.017 100.787   3
 -17 -13  -6 671.929 75.7718  10
 -17 -13  -5 1898.89 89.4733  10
  13  -5  17 1828.03 86.5678   8
 -17   5  13 1855.83 93.0933   3
 -13   5  17 2043.11 110.770   3
  -5 -13 -17 1938.40 97.9325   4
  -5 -17 -13 2076.99 93.8262   4
 -17   4  13 336.787 82.7713   3
  -4 -17 -13 222.979 86.8692   4
  -4 -13 -17 258.601 84.1029   4
 -17 -13  -4 268.417 72.2422  10
 -17 -13  -3 1385.88 81.0767  10
  -3 -13 -17 1497.06 95.6335   4
  -3 -17 -13 1584.50 98.1146   4
 -13   2  17 801.504 99.3572   3
  -2 -13 -17 746.061 92.8695   4
  -2 -17 -13 719.966 86.8088   4
 -17 -13  -2 794.953 81.3105  10
 -13   1  17 1070.94 96.6154   3
  -1 -17 -13 945.616 94.4547   4
  -1 -13 -17 1021.05 91.1369   4
 -13   0  17 1778.78 96.9504   3
   0 -17 -13 1709.53 100.430   4
   0 -13 -17 1754.61 94.2939   4
 -13  -1  17 1081.42 101.177   3
   1 -13 -17 1030.58 93.3030   4
   1 -17 -13 1139.06 94.4548   4
   2 -13 -17 1239.40 90.2102   4
   2 -17 -13 1273.85 86.5203   4
   3 -13 -17 1347.86 94.4718   4
   3 -17 -13 1319.07 89.6980   4
 -13  -3  17 1310.15 77.4052  11
 -13  -4  17 270.446 72.7922  11
   4 -17 -13 178.053 75.6899   4
   4 -13 -17 176.624 81.5242   4
 -13  -5  17 1632.27 90.8039  11
   5 -13 -17 1473.17 84.3020   4
   5 -17 -13 1656.83 87.7134   4
   5 -17 -13 1647.97 88.4508   9
 -13  -6  17 451.692 81.1656  11
   6 -17 -13 461.829 75.9025   9
 -13  -7  17 3033.31 110.265  11
  -7 -13  17 2945.98 98.5198  11
   7 -17 -13 2869.76 108.661   9
  -8 -13  17 206.451 64.1381  11
 -13  -8  17 246.611 78.2413  11
 -17  -8  13 89.5894 76.6289  12
  -9 -13  17 453.113 66.4906  11
  13  -9 -17 457.684 72.7901   9
   9 -13 -17 562.451 77.7684   9
   9 -17 -13 551.715 79.5844   9
 -13 -10  17 116.067 67.3821  11
 -10 -13  17 118.985 66.9251  11
 -17 -10  13-33.5143 71.8385  12
  10 -13 -17 51.1325 74.6040   9
  10 -17 -13 118.708 72.8033   9
  13 -10 -17-28.0416 68.4667   9
 -13 -11  17 159.419 68.9217  11
 -11 -13  17 192.985 61.9642  11
  11 -17 -13 178.151 68.4677   9
  13 -11 -17 185.826 69.8744   9
  11 -13 -17 190.115 69.5552   9
 -12 -13  17 260.462 61.0159  11
 -13 -12  17 289.785 59.9550  11
  13 -12 -17 207.440 63.8263   9
  12 -13 -17 267.743 65.2782   9
  13 -17 -12 187.076 64.0956   9
  13 -17 -13 48.4325 59.1521   9
  13 -13 -17 8.23562 57.9999   9
  17 -14  14 21.0426 37.8990   8
  14 -14  17 18.4281 38.1706   8
  13 -14  17 993.880 54.5001   8
  14 -13  17 948.618 52.2695   8
  17 -13  14 917.917 52.7078   8
  17 -14  13 1017.73 50.1734   8
 -13  14  17 1015.65 55.6140   3
 -14  13  17 924.504 54.9959   3
  17 -12  14 208.587 50.9958   8
  12 -14  17 385.363 48.7852   8
  17 -14  12 300.300 52.5394   8
 -14  12  17 278.491 60.3858   3
 -12  14  17 333.937 56.8561   3
  14 -11  17 391.347 61.1062   8
  17 -14  11 345.715 52.8358   8
  11 -14  17 451.070 55.7120   8
 -11  14  17 376.054 64.0373   3
 -14  11  17 383.156 64.5524   3
  10 -14  17 1147.54 68.9272   8
  14 -10  17 1218.00 71.2077   8
  17 -10  14 1168.59 72.8262   8
  17 -14  10 1118.37 66.3231   8
 -14  10  17 1209.72 82.3382   3
 -10  14  17 1052.83 75.1064   3
  14  -9  17 23.8499 61.1846   8
  17  -9  14 11.6456 61.5181   8
   9 -14  17 130.811 63.6235   8
 -14   9  17 6.24615 81.2416   3
  14  -8  17-15.7777 60.7188   8
  17  -8  14-55.5725 70.3531   8
   8 -14  17-37.0255 65.6006   8
 -14   8  17 121.140 83.9368   3
  14  -7  17 262.541 65.3360   8
  17  -7  14 313.642 70.6249   8
 -17   7  14 304.763 78.2216   3
 -14   7  17 333.922 88.0432   3
 -17 -14  -7 246.261 71.8020  10
  14  -6  17 381.702 70.1946   8
  -6 -14 -17 388.584 76.0397   4
  -6 -17 -14 374.898 78.3511   4
 -17   6  14 419.981 76.2453   3
 -14   6  17 303.310 84.6133   3
 -17 -14  -6 386.742 78.2777  10
  14  -5  17 442.003 70.0549   8
 -17   5  14 384.471 82.0841   3
 -14   5  17 415.898 90.3941   3
  -5 -14 -17 316.750 80.2719   4
  -5 -17 -14 437.828 78.7638   4
 -17 -14  -5 389.169 78.2305  10
 -17   4  14-59.6701 81.2762   3
 -14   4  17 32.1499 96.1822   3
  -4 -14 -17 264.754 82.5141   4
  -4 -17 -14 69.9332 83.4206   4
 -17 -14  -4 94.2617 71.2284  10
 -17 -14  -3 1061.74 75.3649  10
  -3 -17 -14 1158.16 92.3213   4
  -3 -14 -17 1213.39 91.3620   4
  -2 -14 -17 266.819 87.3898   4
  -2 -17 -14 188.527 85.4006   4
 -14   1  17 718.251 90.7314   3
  -1 -17 -14 643.561 89.7448   4
  -1 -14 -17 764.863 88.5231   4
   0 -17 -14 228.891 83.0064   4
   0 -14 -17 147.284 82.3969   4
   1 -17 -14 763.631 90.4518   4
   1 -14 -17 886.272 91.5803   4
   2 -14 -17 368.944 80.7503   4
   2 -17 -14 266.754 77.7197   4
   3 -14 -17 1252.84 89.6753   4
   3 -17 -14 1183.64 89.0067   4
   4 -14 -17 50.5189 77.8802   4
   4 -17 -14 48.1996 76.2799   4
 -14  -4  17 167.411 76.2934  11
   5 -14 -17 158.963 71.2336   4
   5 -17 -14 274.327 72.8716   4
 -14  -5  17 219.897 73.9688  11
   5 -17 -14 244.633 76.5372   9
 -14  -6  17 204.073 77.4606  11
   6 -17 -14 156.967 71.8982   9
 -17  -7  14-47.7692 82.5185  12
 -14  -7  17-17.1758 67.5651  12
 -14  -7  17 130.216 75.7605  11
   7 -17 -14 143.477 75.8856   9
 -14  -8  17 209.604 76.1899  11
 -17  -8  14 11.9624 69.5244  12
   8 -14 -17 166.839 75.5638   9
   8 -17 -14 54.1557 76.1047   9
  -9 -14  17 121.954 59.0412  11
 -17  -9  14 36.4885 74.7037  12
   9 -17 -14 183.106 74.7179   9
 -10 -14  17 999.724 63.0975  11
 -14 -10  17 958.238 70.6863  11
  10 -17 -14 1007.23 72.8026   9
  14 -10 -17 852.724 69.2814   9
  10 -14 -17 1017.00 75.5024   9
 -11 -14  17 542.005 58.5392  11
  11 -17 -14 431.394 69.1849   9
  14 -11 -17 553.210 64.9729   9
  11 -14 -17 497.017 67.5075   9
  14 -12 -17 339.067 57.2572   9
  12 -14 -17 321.508 62.5921   9
  13 -17 -14 927.559 61.6999   9
  14 -13 -17 849.636 57.0639   9
  13 -14 -17 790.969 58.2692   9
  14 -14 -17 20.2206 45.9125   9
  17 -13  15 146.586 38.9682   8
  17 -15  13 92.3265 36.9412   8
  15 -13  17 54.7056 39.1624   8
 -15  12  17 83.4522 49.3518   3
 -12  15  17 59.4234 46.3546   3
  17 -15  12 77.4288 41.0688   8
 -11  15  17 248.119 57.8337   3
 -15  11  17 258.175 58.9602   3
  15 -11  17 152.323 49.1907   8
  17 -11  15 244.172 53.5479   8
  17 -15  11 230.226 47.4212   8
 -10  15  17 208.810 61.7123   3
 -15  10  17 166.273 61.1925   3
  17 -15  10 188.690 51.8681   8
  15 -10  17 116.176 54.6454   8
  17 -10  15 144.494 58.3197   8
 -15   9  17 615.196 75.1024   3
  15  -9  17 546.109 61.0893   8
  17 -15   9 508.968 56.7360   8
  17  -9  15 535.753 59.1597   8
 -17   8  15 1030.49 74.9527   3
 -15   8  17 1120.27 81.8103   3
  15  -8  17 1020.12 70.5628   8
  17  -8  15 946.407 70.5749   8
 -17   7  15 616.295 77.9735   3
 -15   7  17 614.168 80.0523   3
  17  -7  15 632.760 69.4963   8
  15  -7  17 603.762 65.3303   8
  17  -6  15 448.665 63.4909   8
  15  -6  17 355.579 59.0487   8
  -6 -15 -17 485.138 72.6367   4
  -6 -17 -15 384.257 69.4564   4
 -17   6  15 573.200 75.8943   3
 -15   6  17 387.978 80.9370   3
 -17 -15  -6 426.965 73.2831  10
  17  -5  15 366.320 67.3597   8
  15  -5  17 331.755 59.5955   8
 -17   5  15 387.319 80.0953   3
 -15   5  17 344.076 83.8740   3
  -5 -15 -17 340.463 72.2053   4
  -5 -17 -15 283.978 73.3822   4
 -17 -15  -5 470.090 72.1354  10
 -15   4  17 236.295 84.6968   3
  -4 -15 -17 301.827 81.1552   4
  -4 -17 -15 446.360 80.7771   4
 -17 -15  -4 241.289 65.9549  10
 -15   3  17 651.685 97.3254   3
  -3 -15 -17 546.715 85.2662   4
  -3 -17 -15 542.062 85.2213   4
  -2 -17 -15 638.366 81.1288   4
  -2 -15 -17 696.309 85.5495   4
  -1 -17 -15 1063.18 91.9451   4
  -1 -15 -17 1131.77 90.9076   4
   0 -17 -15 2532.73 108.796   4
   0 -15 -17 2529.52 105.776   4
   1 -17 -15 965.415 90.6056   4
   1 -15 -17 938.345 90.2659   4
   2 -17 -15 832.545 81.8032   4
   2 -15 -17 803.740 81.3634   4
   3 -17 -15 534.023 77.4847   4
   3 -15 -17 641.493 80.5161   4
 -15  -3  17 464.203 70.4291  11
   4 -17 -15 169.881 71.2372   9
   4 -15 -17 205.581 71.9586   4
   4 -17 -15 201.608 72.2979   4
 -15  -4  17 180.504 71.0823  11
   5 -17 -15 231.685 69.0254   9
   5 -15 -17 80.3649 71.7234   4
   5 -17 -15 322.119 74.0185   4
 -15  -5  17 245.537 67.5598  11
 -15  -6  17 567.660 75.3876  11
   6 -15 -17 495.622 76.3990   9
   6 -17 -15 563.013 72.4297   9
 -15  -7  17 414.381 75.0747  11
   7 -15 -17 620.495 74.6658   9
   7 -17 -15 514.476 70.4884   9
 -15  -8  17 1021.06 76.3078  11
   8 -17 -15 1060.02 72.7755   9
   8 -15 -17 864.735 78.1321   9
   9 -17 -15 178.379 65.0431   9
   9 -15 -17 310.689 67.4238   9
 -17 -10  15-108.302 63.6916  12
  10 -17 -15 109.793 64.7025   9
 -17 -11  15-23.0388 53.8706  12
  11 -17 -15 151.505 57.5096   9
  11 -15 -17 98.7949 62.0407   9
  15 -12 -17 89.6707 48.2971   9
  12 -15 -17 77.2308 54.1894   9
  13 -17 -15 195.183 48.9623   9
  15 -13 -17 118.904 44.7647   9
  13 -15 -17 108.028 49.5041   9
 -16  11  17 164.700 47.4822   3
 -11  16  17 203.344 47.1586   3
  16 -11  17 215.393 42.9735   8
  17 -11  16 213.345 43.0898   8
 -10  16  17 352.774 52.9294   3
 -16  10  17 456.814 57.2345   3
  16 -10  17 520.583 50.4866   8
  17 -10  16 406.445 48.9374   8
 -16   9  17 129.628 57.8232   3
  16  -9  17 124.776 53.7437   8
  17  -9  16 47.7995 54.0532   8
 -16   8  17 53.8328 64.2514   3
  16  -8  17 73.1043 56.3124   8
  17  -8  16 136.055 51.9986   8
 -16   7  17 490.165 75.4276   3
  16  -7  17 395.666 60.3147   8
  17  -7  16 342.331 55.4512   8
 -16   6  17 157.755 72.7959   3
  16  -6  17 59.7986 54.5177   8
  17  -6  16-21.9078 59.6820   8
  -6 -16 -17 116.382 62.7725   4
  -6 -17 -16 77.3557 66.3941   4
  17  -5  16 728.409 59.9506   8
  -5 -16 -17 779.786 71.5661   4
  -5 -17 -16 951.814 75.7893   4
 -16   5  17 851.138 85.4632   3
  -4 -17 -16 207.897 72.0047   4
  -4 -16 -17 203.276 74.4378   4
 -16   4  17 120.261 81.8906   3
  -3 -16 -17 2449.75 99.9780   4
  -3 -17 -16 2228.46 95.9010   4
  -2 -16 -17 667.280 78.7819   4
  -2 -17 -16 478.281 83.6781   4
  -1 -17 -16 2384.12 100.650   4
  -1 -16 -17 2443.13 105.224   4
   0 -16 -17 653.677 85.8783   4
   0 -17 -16 679.335 80.4306   4
   1 -17 -16 2136.00 97.0744   4
   1 -16 -17 2319.63 101.489   4
   2 -16 -17 655.309 77.3312   4
   2 -17 -16 692.956 83.0668   4
   3 -16 -17 2148.00 91.6217   4
   3 -17 -16 2307.76 95.8429   4
   3 -16 -17 2118.97 87.8324   9
   4 -16 -17 172.410 70.2282   9
   4 -17 -16 170.942 64.8980   9
   4 -16 -17 253.020 69.4417   4
   4 -17 -16 229.913 74.2996   4
   5 -17 -16 645.965 67.7541   4
   5 -16 -17 711.312 69.8151   9
   5 -17 -16 684.668 71.2404   9
   5 -16 -17 516.569 70.2405   4
 -17  -6  16 77.7514 69.1417  12
 -16  -6  17-12.0374 70.2780  12
   6 -17 -16 26.3178 65.1389   9
   6 -16 -17 70.3098 69.8081   9
 -17  -7  16-175.321 64.2522  12
   7 -17 -16 377.010 67.5884   9
   7 -16 -17 369.511 67.2125   9
 -16  -8  17-135.049 59.5557  12
 -17  -8  16-135.857 66.0201  12
   8 -17 -16 23.9358 64.7791   9
   8 -16 -17 123.176 66.7819   9
 -17  -9  16-107.494 59.6350  12
 -16  -9  17-74.9405 55.0925  12
   9 -17 -16 115.746 59.3392   9
   9 -16 -17 102.682 61.3649   9
  10 -17 -16 491.664 57.4145   9
  10 -16 -17 555.478 60.3037   9
  11 -17 -16 265.872 51.8607   9
  12 -16 -17 454.788 49.6800   9
  17 -11  17-47.9399 35.3545   8
  17 -10  17 445.924 43.3321   8
  -9  17  17 8.39545 48.9621   3
  17  -9  17 10.8423 42.9345   8
  17  -8  17 1421.58 59.5059   8
  17  -7  17 112.829 47.6550   8
  -6 -17 -17 171.129 58.9848   4
  17  -6  17 156.473 50.0300   8
  -5 -17 -17 119.401 64.3737   4
  -4 -17 -17 83.5237 65.8245   4
  -3 -17 -17 30.9649 69.0301   4
  -2 -17 -17 805.964 76.2604   4
  -1 -17 -17 179.452 74.3502   4
   0 -17 -17 2176.97 95.7114   4
   1 -17 -17 111.615 72.5708   4
   2 -17 -17 1238.59 82.5785   4
   3 -17 -17 3.22502 68.8690   4
   4 -17 -17 238.996 67.5979   4
   4 -17 -17 204.288 59.5396   9
 -17  -5  17-33.6310 67.7269  12
   5 -17 -17 85.6519 58.4704   4
   5 -17 -17-11.5691 62.1296   9
   6 -17 -17 143.564 59.0272   9
 -17  -6  17-184.067 66.3386  12
   7 -17 -17 77.9562 59.1369   9
 -17  -7  17 27.5229 56.6983  12
   8 -17 -17 1340.57 67.3759   9
   9 -17 -17 65.9601 52.5666   9
 -17  -9  17-12.0721 48.8340  12
  10 -17 -17 540.831 52.7868   9
  11 -17 -17-34.1035 45.2058   9
   0   0 -18 1766.89 217.329   5
 -18  -1  -1 1402.21 258.693   2
  -1  -1 -18 1453.71 224.390   5
 -18  -1   0 240.970 227.182   2
   1   0 -18 104.943 197.406   5
   0  -1 -18-407.722 213.980   5
   0   1 -18-145.425 177.492   5
  -1   0 -18-135.817 185.332   5
   1  -1 -18 1096.06 219.432   5
  -1   1 -18 1574.04 211.387   5
 -18  -2  -2 429.312 232.708   2
  -2  -2 -18 546.883 187.842   5
 -18  -2  -1 1272.35 228.933   2
 -18  -1  -2 988.175 204.802   2
  -1  -2 -18 1185.84 222.646   5
  -2  -1 -18 1247.78 207.458   5
 -18  -2   0 965.205 249.273   2
   2   0 -18 976.846 198.375   5
   0  -2 -18 748.438 219.558   5
  -2   0 -18 765.669 187.286   5
 -18  -1   2 912.339 245.289   2
   2  -1 -18 1587.25 222.774   5
   1  -2 -18 1762.37 231.925   5
  -2   1 -18 1363.82 204.549   5
 -18  -2   2 1468.33 215.587   2
   2  -2 -18 1637.92 224.863   5
 -18  -3  -3 3745.76 275.293   2
  -3  -3 -18 4384.44 280.815   5
 -18  -2  -3 1467.68 226.967   2
 -18  -3  -2 1469.91 227.034   2
  -2  -3 -18 1764.70 238.547   5
  -3  -2 -18 1568.98 235.518   5
 -18  -1  -3 1708.97 232.827   2
 -18  -3  -1 1824.82 248.921   2
  -1  -3 -18 1843.53 209.402   5
  -3  -1 -18 2202.38 229.850   5
 -18  -3   0 191.113 194.901   2
   3   0 -18-20.3422 170.878   5
   0  -3 -18 146.966 185.050   5
  -3   0 -18 596.114 212.578   5
 -18  -1   3 1672.50 245.570   2
  -3   1 -18 1574.68 194.136   5
   3  -1 -18 1513.59 203.032   5
   1  -3 -18 1660.48 211.148   5
 -18  -2   3 2467.46 256.755   2
 -18  -3   2 2043.59 255.484   2
   3  -2 -18 1924.00 212.462   5
   2  -3 -18 1719.61 228.327   5
 -18  -3   3 2490.56 229.762   2
   3  -3 -18 2966.78 260.419   5
 -18  -4  -4 983.608 226.055   2
  -4  -4 -18 1058.19 235.488   5
 -18  -4  -3 991.299 222.338   2
 -18  -3  -4 706.167 210.113   2
  -4  -3 -18 1044.80 209.522   5
  -3  -4 -18 940.699 233.253   5
 -18  -2  -4 101.058 211.524   2
 -18  -4  -2 375.642 233.200   2
  -4  -2 -18-115.999 225.138   5
  -2  -4 -18 173.516 195.503   5
 -18  -1  -4 681.229 191.587   2
 -18  -4  -1 979.049 216.254   2
  -4  -1 -18 968.770 224.657   5
  -1  -4 -18 1098.61 226.869   5
 -18   0  -4 288.201 220.079   2
 -18  -4   0 197.324 232.380   2
   4   0 -18 81.9809 201.889   5
  -4   0 -18 172.596 185.633   5
   0  -4 -18 189.386 219.469   5
 -18  -1   4 1143.31 223.140   2
   4  -1 -18 1210.39 221.159   5
  -4   1 -18 1032.67 215.204   5
   1  -4 -18 1313.04 237.572   5
 -18  -2   4 577.065 228.538   2
 -18  -4   2 284.196 196.473   2
   4  -2 -18 174.916 224.093   5
   2  -4 -18 413.432 197.887   5
 -18  -4   3 1371.30 240.001   2
 -18  -3   4 1011.58 196.865   2
   4  -3 -18 1187.82 210.547   5
   3  -4 -18 1433.77 243.224   5
 -18  -4   4 782.875 232.731   2
   4  -4 -18 831.985 206.492   5
 -18  -5  -5-240.604 214.899   2
  -5  -4 -18 2326.34 255.645   5
 -18  -5  -4 1519.52 199.410   2
 -18  -4  -5 1657.76 210.757   2
  18  -4   5 1581.95 252.498   7
  -5  -3 -18 713.362 235.233   5
 -18  -5  -3 254.207 198.155   2
 -18  -3  -5 296.883 202.911   2
  18  -3   5 91.6135 221.225   7
  -5  -2 -18 2277.33 240.246   5
 -18  -5  -2 2048.19 219.577   2
 -18  -2  -5 1747.58 218.219   2
  18  -2   5 1742.11 235.484   7
  -5  -1 -18 163.007 199.204   5
 -18  -5  -1 236.683 235.556   2
  18  -1   5-119.367 203.760   7
 -18   0  -5-5.34217 181.504   2
 -18   0   5 76.7708 208.965   2
 -18  -5   0-55.1479 224.190   2
   0  -5 -18-210.341 225.705   5
  -5   0 -18-143.298 214.714   5
 -18  -1   5 76.0873 221.707   2
   5  -1 -18 506.162 190.245   5
   1  -5 -18 234.927 224.417   5
 -18  -5   2 1484.08 248.069   2
 -18  -2   5 1328.42 213.558   2
   5  -2 -18 1601.07 228.211   5
   2  -5 -18 1307.25 213.100   5
 -18  -5   3 266.654 226.420   2
 -18  -3   5 106.030 210.685   2
   3  -5 -18 320.829 239.739   5
   5  -3 -18 73.1906 200.018   5
 -18  -5   4 1425.03 223.257   2
 -18  -4   5 1819.50 214.606   2
   4  -5 -18 1487.53 219.119   5
   5  -4 -18 1515.57 238.223   5
 -18  -5   5 52.8600 218.948   2
   5  -5 -18 135.163 213.211   5
  -6  -6 -18 295.022 198.010   5
  -5  -6 -18 970.303 246.978   5
  -6  -5 -18 809.960 225.827   5
 -18  -6  -5 1171.10 203.743   2
  18  -5   6 1187.48 241.734   7
  -4  -6 -18 696.303 207.266   5
 -18  -6  -4 655.692 217.768   2
  18  -4   6 489.404 246.318   7
  -6  -3 -18 727.344 228.210   5
  -3  -6 -18 893.158 246.775   5
 -18  -6  -3 713.555 233.693   2
  18  -3   6 1193.16 247.752   7
  -6  -2 -18 659.724 218.748   5
  -2  -6 -18 792.501 229.572   5
 -18  -6  -2 878.761 230.446   2
  18  -2   6 756.966 202.969   7
  -1  -6 -18 300.449 198.328   5
 -18  -6  -1 491.179 224.232   2
  18  -1   6 596.119 232.018   7
   0  -6 -18-63.5948 199.191   5
 -18   0   6 53.7439 191.475   2
 -18  -6   0 243.257 194.281   2
   6  -1 -18 795.740 192.527   5
 -18  -1   6 821.631 184.390   2
   6  -2 -18 138.853 213.360   5
 -18  -6   2 346.558 237.237   2
 -18  -2   6 265.335 207.723   2
   6  -3 -18 1066.07 213.535   5
 -18  -6   3 1086.71 198.829   2
 -18  -3   6 1019.34 192.612   2
   6  -4 -18 536.405 228.199   5
 -18  -6   4 248.334 186.878   2
 -18  -4   6 310.293 204.973   2
   6  -5 -18 552.291 217.166   5
   5  -6 -18 781.551 234.009   5
 -18  -6   5 987.470 201.788   2
 -18  -5   6 976.407 183.807   2
   6  -6 -18 108.345 236.998   5
 -18  -6   6 51.8843 199.990   2
   7  -7  18 385.599 75.5322   8
 -18  -7  -7 414.760 88.0555  10
 -18  -6  -7 2971.32 109.548  10
 -18  -7  -6 3095.11 115.723  10
  -6  -7 -18 2648.05 105.102   4
   6  -7  18 2911.27 110.765   8
   7  -6  18 2885.41 110.174   8
  18  -6   7 3320.56 288.413   7
  -6 -18  -7 3115.45 111.211   4
  -6  -7 -18 2905.05 271.965   5
  -5  -7 -18 318.086 203.129   5
 -18  -5  -7 230.766 74.3202  10
 -18  -7  -5 167.451 87.7987  10
   5  -7  18 244.012 76.9525   8
   7  -5  18 146.822 77.0038   8
 -18  -7  -5 21.2863 174.563   2
  18  -5   7 291.366 203.142   7
  -5  -7 -18 110.372 82.6354   4
  -4  -7 -18 4324.27 301.236   5
  18  -4   7 4300.70 298.834   7
 -18  -7  -4 4549.82 280.504   2
  18  -3   7 617.223 236.220   7
  -3  -7 -18 846.150 208.086   5
 -18  -7  -3 660.258 230.890   2
  18  -2   7 2106.67 227.517   7
  -2  -7 -18 1801.26 240.683   5
 -18  -7  -2 2003.77 257.651   2
  18  -1   7 397.241 234.495   7
  -1  -7 -18 560.246 241.424   5
 -18  -7  -1 178.517 192.086   2
   0  -7 -18 17.5541 234.985   5
 -18  -7   0 318.517 225.518   2
   1  -7 -18 575.806 238.261   5
   7  -1 -18 325.583 210.145   5
   2  -7 -18 1603.81 221.224   5
   7  -2 -18 1341.03 240.825   5
 -18  -7   2 1499.42 216.508   2
  18  -3  -7 908.982 231.057   6
   3  -7 -18 1300.52 253.695   5
   7  -3 -18 1347.04 212.357   5
 -18  -7   3 1041.02 234.086   2
   7  -4 -18 4046.55 260.205   5
   4  -7 -18 4437.80 269.224   5
  18  -4  -7 4560.29 290.716   6
 -18  -7   4 4064.08 279.480   2
  -7  -5  18 203.871 79.6649  11
 -18  -7   5-198.069 90.1980  12
  -5  -7  18 206.479 78.4262  11
   5  -7 -18 93.5353 69.6919   4
   5 -18  -7 129.301 74.6128   4
   5  -7 -18 192.872 207.741   5
   7  -5 -18-131.018 215.929   5
  18  -5  -7 344.920 210.787   6
 -18  -7   5 16.0316 189.131   2
 -18  -7   6 3750.88 251.068   2
  -6  -7  18 3095.91 109.011  11
  -7  -6  18 2972.32 107.145  11
  18  -7  -6 3114.01 281.581   6
  18  -6  -7 3028.01 240.821   6
   7  -6 -18 3145.15 281.121   5
   7 -18  -6 3099.31 112.121   9
   7 -18  -7 483.405 81.3367   9
  18  -7  -7 1016.62 209.107   6
   8  -8  18 776.310 71.6205   8
 -18  -8  -8 688.669 78.6800  10
   7  -8  18 459.667 82.5975   8
   8  -7  18 431.492 81.5997   8
 -18  -8  -7 465.400 81.2312  10
 -18  -7  -8 331.506 85.4331  10
   8  -6  18 431.076 67.4952   8
   6  -8  18 256.759 68.5233   8
  -6  -8 -18 348.389 82.6417   4
  -6 -18  -8 261.162 74.4032   4
  18  -6   8 74.0424 203.582   7
 -18  -8  -6 392.932 76.0778  10
 -18  -6  -8 342.491 84.5354  10
 -18  -8  -5 1081.86 215.815   2
  -5  -8 -18 1223.83 221.257   5
 -18  -5  -8 1087.83 88.0947  10
 -18  -8  -5 941.800 84.7242  10
  -5  -8 -18 1021.36 82.8988   4
  -5 -18  -8 987.602 86.6961   4
   5  -8  18 1131.51 82.2137   8
   8  -5  18 998.393 72.1271   8
  18  -5   8 1086.01 255.727   7
  -8   5  18 1152.41 99.9089   3
 -18  -8  -4 853.018 222.156   2
  -4  -8 -18 508.322 232.930   5
 -18  -4  -8 765.916 74.6883  10
  -4  -8 -18 676.397 86.8488   4
  -4 -18  -8 615.109 77.8060   4
   4  -8  18 675.690 78.3859   8
  18  -4   8 1086.27 231.353   7
  -8   4  18 700.856 92.1833   3
  18  -3   8 1432.22 221.798   7
 -18  -8  -3 1138.26 207.785   2
  -3  -8 -18 1501.35 211.168   5
  18  -2   8-40.2121 235.268   7
 -18  -8  -2 157.024 226.000   2
  -2  -8 -18-135.267 237.191   5
  -1  -8 -18 2374.46 263.386   5
  18  -1   8 2910.08 259.774   7
 -18  -8  -1 2622.02 256.344   2
 -18  -8   0 327.753 243.159   2
   0  -8 -18 364.427 231.933   5
   1  -8 -18 2914.57 270.820   5
   8  -1 -18 2759.16 245.611   5
 -18  -8   2 241.054 206.055   2
   2  -8 -18 41.8602 213.149   5
   8  -2 -18 218.494 188.852   5
 -18  -8   3 1837.73 256.392   2
  -8  -3  18 1687.69 86.1992  11
  18  -3  -8 1578.16 237.975   6
   3  -8 -18 1798.24 251.946   5
   3 -18  -8 1702.34 90.3447   4
   8  -3 -18 1447.24 247.364   5
 -18  -8   4 60.1899 225.300   2
   4  -8 -18 621.733 83.5955   4
   4 -18  -8 542.960 79.3385   4
  -4  -8  18 798.725 86.0721  11
  -8  -4  18 756.847 86.3006  11
  18  -4  -8 848.459 232.795   6
   4  -8 -18 562.262 209.989   5
   8  -4 -18 310.548 237.976   5
 -18  -8   5 756.464 222.510   2
   5  -8 -18 832.331 84.7242   4
   5 -18  -8 692.246 81.8069   4
  -5  -8  18 811.409 84.7022  11
  -8  -5  18 742.196 88.0480  11
   8 -18  -5 765.327 81.0228   9
  18  -5  -8 1004.07 200.746   6
   5  -8 -18 949.390 222.360   5
   8  -5 -18 689.887 244.951   5
 -18  -8   6-76.9464 88.4172  12
  -8  -6  18 262.863 85.2153  11
 -18  -6   8 12.5915 83.7926  12
  -6  -8  18 115.107 71.1688  11
   8 -18  -6 88.5527 78.5160   9
 -18  -8   6 229.625 197.204   2
  18  -8  -6 182.814 191.853   6
  18  -6  -8 278.824 226.085   6
   8  -6 -18-72.0106 207.560   5
   6  -8 -18 96.4886 197.929   5
  -7  -8  18 368.941 81.7861  11
 -18  -8   7-195.737 92.9790  12
 -18  -7   8-257.951 92.2035  12
  18  -8  -7-100.391 243.285   6
  18  -7  -8 348.903 230.047   6
   8 -18  -7 159.055 73.9741   9
   7 -18  -8 243.823 72.4477   9
   7  -8 -18 616.144 236.366   5
  -8  -8  18 593.286 84.6775  11
   8 -18  -8 571.519 81.3939   9
 -18  -9  -9 1511.06 92.5960  10
   9  -9  18 1410.10 79.8134   8
 -18  -9  -8 163.523 83.1764  10
 -18  -8  -9 36.8675 74.1505  10
   9  -8  18 18.5790 67.2344   8
   8  -9  18 122.429 68.5566   8
   9  -7  18 759.445 79.0024   8
   7  -9  18 479.114 81.2572   8
  -9   7  18 683.705 99.0143   3
 -18  -7  -9 572.772 75.9321  10
 -18  -9  -7 641.572 88.4722  10
 -18  -9  -6 1866.07 101.893  10
 -18  -6  -9 1969.12 89.1615  10
  -6  -9 -18 2003.55 98.9057   4
   6  -9  18 1959.35 91.0864   8
   9  -6  18 1832.21 84.9482   8
  -6 -18  -9 2138.72 98.8928   4
  -9   6  18 1842.77 102.781   3
 -18  -9  -5 588.989 214.741   2
  -5  -9 -18 507.582 197.481   5
 -18  -5  -9 565.405 80.9690  10
  -5  -9 -18 532.533 79.3668   4
  -5 -18  -9 643.015 79.9707   4
   9  -5  18 696.683 73.3187   8
   5  -9  18 570.469 83.9168   8
  18  -5   9 721.876 223.957   7
  -9   5  18 518.927 95.5715   3
  -4 -18  -9 3138.76 116.099   4
  -4  -9 -18 3022.92 268.320   5
 -18  -9  -4 2942.81 115.474  10
  -4  -9 -18 2857.73 116.648   4
  18  -4   9 2966.87 267.855   7
  -9   4  18 2721.60 110.402   3
 -18  -9  -4 2811.71 222.929   2
  -3  -9 -18 784.273 206.554   5
 -18  -9  -3 680.637 82.9311  10
 -18  -9  -3 977.268 202.261   2
  -3 -18  -9 864.904 93.2104   4
  -3  -9 -18 830.941 93.5721   4
  -9   3  18 817.781 81.5062   3
  -2 -18  -9 1259.10 88.5680   4
  -2  -9 -18 1426.96 234.784   5
 -18  -9  -2 1301.35 82.1082  10
 -18  -9  -2 1208.90 208.409   2
  -2  -9 -18 1364.69 88.8328   4
  18  -2   9 1278.68 228.555   7
  -9   2  18 1369.24 96.1700   3
  -1  -9 -18 501.411 228.667   5
   1  -9  18 189.025 77.3766  11
 -18  -9  -1 123.862 71.1594  10
 -18  -9  -1 596.729 245.015   2
  -1  -9 -18 191.353 90.5506   4
  -1 -18  -9 258.647 89.9504   4
  18  -1   9 299.980 226.443   7
  -9   1  18 162.759 79.8370   3
 -18  -9   0 136.931 80.9211  10
   0  -9  18 80.4287 77.3698  11
 -18  -9   0 125.246 232.444   2
  -9   0  18 109.496 84.5615   3
   0  -9 -18 76.0667 232.693   5
   0  -9 -18 190.788 91.9526   4
  -1  -9  18 214.811 80.2550  11
 -18  -9   1 230.195 80.1421  10
   1  -9 -18 187.442 88.3963   4
   1 -18  -9 231.038 89.1299   4
  -9  -1  18 259.010 82.7748   3
   1  -9 -18 152.719 225.110   5
 -18  -9   2 531.085 80.6434  10
  -2  -9  18 531.418 71.9204  11
  -9  -2  18 564.848 80.6898  11
   2 -18  -9 454.412 77.3936   4
   2  -9 -18 595.882 85.4778   4
 -18  -9   2 417.571 230.520   2
   2  -9 -18 818.643 203.868   5
  -3  -9  18 464.494 71.6743  11
  -9  -3  18 355.764 77.6648  11
   3  -9 -18 317.268 239.409   5
 -18  -9   3 256.698 227.656   2
   3 -18  -9 456.004 81.3074   4
   3  -9 -18 467.695 78.7303   4
 -18  -9   4 2029.95 231.793   2
  -4  -9  18 1904.58 90.7508  11
  -9  -4  18 2154.75 97.2729  11
  18  -4  -9 2247.20 246.779   6
   4  -9 -18 1880.08 244.941   5
   4 -18  -9 1903.52 92.0690   4
   4  -9 -18 1855.09 92.5491   4
 -18  -9   5-187.690 224.051   2
 -18  -9   5-62.0863 80.3977  12
  -5  -9  18 252.198 71.9752  11
  -9  -5  18 335.931 74.2194  11
   5 -18  -9 294.237 76.8518   4
   5  -9 -18 287.811 83.1629   4
  18  -5  -9 150.827 193.692   6
  18  -9  -5 43.9759 246.793   6
   5  -9 -18 126.389 207.701   5
  -6  -9  18 1535.59 84.0209  11
  -9  -6  18 1542.28 88.8454  11
   9 -18  -6 1418.67 86.4725   9
  -9  -7  18 721.599 87.4721  11
  -7  -9  18 586.651 82.6285  11
   9 -18  -7 569.568 84.2306   9
   7 -18  -9 729.601 83.5910   9
 -18  -9   8 250.824 90.9774  12
 -18  -8   9-56.7212 81.2257  12
  -8  -9  18 74.9371 81.5613  11
   9 -18  -8 28.5509 74.3152   9
   8 -18  -9-9.97496 74.5195   9
  -9  -9  18 1252.32 80.3058  11
   9 -18  -9 1431.18 87.9883   9
  10 -10  18 1018.58 79.2123   8
 -18 -10 -10 1044.76 76.7186  10
 -10  10  18 1032.19 90.6455   3
   9 -10  18 1590.41 80.8484   8
  10  -9  18 1693.14 80.5243   8
 -18  -9 -10 1481.03 90.3359  10
 -18 -10  -9 1728.60 85.3882  10
 -10   9  18 1693.46 99.2107   3
 -18  -8 -10 701.374 84.4103  10
 -18 -10  -8 467.166 75.1162  10
  10  -8  18 464.350 68.3263   8
   8 -10  18 496.762 72.9080   8
  10  -7  18 1045.00 83.7036   8
 -10   7  18 1166.09 101.473   3
 -18  -7 -10 1082.41 87.3817  10
  10  -6  18 188.742 67.1621   8
  -6 -10 -18 248.589 82.5763   4
  -6 -18 -10 238.026 81.9476   4
 -10   6  18 111.394 88.5145   3
 -18  -6 -10 235.881 76.0430  10
  10  -5  18 165.418 65.8166   8
 -10   5  18 136.473 91.2860   3
 -18 -10  -5 278.624 74.2419  10
 -18  -5 -10 237.484 69.3397  10
  -5 -18 -10 255.098 82.9178   4
  -5 -10 -18 212.247 81.8992   4
 -18 -10  -4 736.393 91.3254  10
  -4 -10 -18 943.995 93.8678   4
  -4 -18 -10 1060.30 92.0456   4
 -10   4  18 896.545 88.5084   3
  -3 -10 -18 500.578 227.021   5
 -18 -10  -3 550.638 86.8353  10
 -18 -10  -3 452.242 219.179   2
  -3 -18 -10 453.388 91.3364   4
  -3 -10 -18 586.083 92.7241   4
  18  -3  10 801.731 250.081   7
 -10   3  18 450.991 89.6175   3
  -2 -10 -18 574.342 219.209   5
   2 -10  18 579.545 70.4605  11
 -18 -10  -2 473.318 85.8864  10
 -18 -10  -2 621.728 200.540   2
  -2 -10 -18 481.956 87.1921   4
  -2 -18 -10 589.134 88.6188   4
  18  -2  10 349.859 234.247   7
 -10   2  18 628.014 81.4815   3
 -10   1  18 1688.45 101.566   3
   1 -10  18 1693.77 88.4197  11
 -18 -10  -1 1740.54 96.6333  10
 -18 -10  -1 1922.24 255.048   2
  -1 -10 -18 1773.30 104.008   4
  18  -1  10 1741.76 226.200   7
  -1 -18 -10 1758.61 101.120   4
  -1 -10 -18 1357.51 206.028   5
   0 -10  18 156.031 76.8935  11
 -18 -10   0 174.078 70.2119  10
   0 -10 -18-213.378 194.676   5
   0 -10 -18 103.918 90.3708   4
 -10   0  18 216.788 74.8375   3
 -18 -10   0 153.843 207.728   2
 -18 -10   1 1829.93 95.7126  10
  -1 -10  18 1855.22 89.6003  11
   1 -10 -18 1887.80 105.742   4
 -10  -1  18 1956.08 92.3790   3
   1 -18 -10 1937.57 102.570   4
   1 -10 -18 1923.05 232.444   5
 -18 -10   2 964.236 246.626   2
 -18 -10   2 823.106 78.5968  10
  -2 -10  18 766.727 78.5165  11
 -10  -2  18 860.894 81.6949  11
 -10  -2  18 828.946 76.6199   3
   2 -18 -10 788.556 81.7861   4
   2 -10 -18 772.057 82.9450   4
   2 -10 -18 984.971 237.685   5
   3 -10 -18 820.540 85.9995   4
   3 -18 -10 844.997 89.0534   4
 -18 -10   3 579.364 207.563   2
   3 -10 -18 718.338 204.468   5
  -3 -10  18 978.788 84.1318  11
 -10  -3  18 698.689 80.7213  11
   4 -10 -18 1458.58 86.3551   4
   4 -18 -10 1469.26 90.7639   4
  -4 -10  18 1523.78 90.4869  11
 -10  -4  18 1487.05 86.0521  11
   5 -18 -10 72.6850 71.4654   4
   5 -10 -18 110.271 78.7924   4
 -18 -10   5 138.581 78.0880  12
  -5 -10  18 71.3724 79.6579  11
 -10  -5  18 101.111 70.5874  11
 -10  -6  18 401.922 73.4822  11
  -6 -10  18 402.587 82.0391  11
  10 -18  -6 427.705 76.5649   9
   6 -18 -10 366.511 73.8227   9
  -7 -10  18 649.222 83.1000  11
 -10  -7  18 515.819 75.8760  11
  10 -18  -7 658.928 79.2542   9
   7 -18 -10 789.151 82.5032   9
  -8 -10  18 540.622 77.6382  11
  10 -18  -8 542.089 78.8404   9
   8 -18 -10 511.478 76.2260   9
 -10  -9  18 1034.71 86.0493  11
  -9 -10  18 1073.25 77.5747  11
  10 -18  -9 1173.96 86.8094   9
   9 -18 -10 1263.02 83.4175   9
 -10 -10  18 1035.67 83.2313  11
  10 -18 -10 1011.96 82.7252   9
  11 -11  18 182.490 68.5048   8
 -11  11  18 205.791 82.6928   3
  11 -10  18 365.596 68.9485   8
 -18 -11 -10 457.315 77.7184  10
 -18 -10 -11 486.071 77.8734  10
 -11  10  18 501.507 88.0461   3
 -10  11  18 440.200 85.1730   3
  11  -9  18 530.653 76.2647   8
 -18  -9 -11 468.589 75.6034  10
 -18 -11  -9 508.362 81.9380  10
 -11   9  18 497.225 94.5596   3
  11  -8  18 80.0379 76.1189   8
 -18  -8 -11 224.781 71.8028  10
 -11   8  18 151.033 85.1001   3
  11  -7  18 747.974 73.9908   8
   7 -11  18 747.476 74.0996   8
 -18  -7 -11 731.732 79.4548  10
  11  -6  18 684.656 77.1109   8
   6 -11  18 623.996 80.8543   8
  -6 -18 -11 787.505 84.1264   4
  -6 -11 -18 638.096 82.1213   4
 -18 -11  -6 763.055 87.2033  10
 -18  -6 -11 677.377 78.6182  10
  11  -5  18 636.179 72.4134   8
 -11   5  18 718.114 96.8605   3
  -5 -18 -11 689.914 80.3909   4
  -5 -11 -18 670.163 86.6030   4
 -18 -11  -5 578.125 76.3065  10
 -11   4  18 268.403 88.5060   3
  -4 -18 -11 140.280 88.5885   4
  -4 -11 -18 213.142 87.0108   4
 -18 -11  -4 306.090 77.4156  10
 -11   3  18 468.953 96.7843   3
  -3 -18 -11 666.317 92.0174   4
  -3 -11 -18 744.591 91.5303   4
 -18 -11  -3 575.472 81.7497  10
 -11   2  18 321.670 92.1597   3
  -2 -11 -18 252.275 89.4600   4
  -2 -18 -11 145.471 81.4133   4
 -18 -11  -2 312.979 71.7875  10
 -11   1  18 46.6301 79.9836   3
  -1 -18 -11 66.7769 89.8438   4
  -1 -11 -18 299.436 90.1361   4
 -18 -11  -1 138.249 76.7356  10
 -11   0  18 670.049 92.8359   3
   0 -11 -18 456.533 89.3531   4
   0 -18 -11 388.001 91.0778   4
 -18 -11   0 612.788 78.8080  10
 -11  -1  18 308.495 85.7408   3
   1 -18 -11 410.951 90.3675   4
   1 -11 -18 319.497 91.8603   4
  -1 -11  18 310.448 73.8369  11
 -18 -11   1 466.138 78.3229  10
  -2 -11  18 745.345 74.3081  11
 -11  -2  18 812.492 76.2719  11
 -11  -2  18 876.333 85.2281   3
   2 -11 -18 757.658 82.6706   4
   2 -18 -11 794.037 81.8938   4
   3 -11 -18 842.828 88.9862   4
   3 -18 -11 826.634 85.1590   4
 -11  -3  18 635.135 76.5400  11
  -3 -11  18 698.730 81.0405  11
   4 -11 -18 639.499 82.7936   4
   4 -18 -11 651.225 78.5124   4
 -11  -4  18 650.242 74.8425  11
  -4 -11  18 740.480 77.8062  11
   5 -11 -18 970.478 80.2330   4
 -11  -5  18 712.658 81.3716  11
  -5 -11  18 764.331 73.1553  11
   5 -18 -11 827.515 80.3553   4
  -6 -11  18 528.501 70.6579  11
 -11  -6  18 662.230 82.0371  11
   6 -18 -11 478.797 74.9426   9
 -11  -7  18 1044.58 80.7011  11
  -7 -11  18 1055.18 75.7071  11
   7 -18 -11 1173.09 84.5792   9
  -8 -11  18 81.9217 73.0360  11
  11 -18  -8 229.887 74.3089   9
   8 -18 -11 137.930 73.6039   9
  -9 -11  18 805.663 79.3425  11
 -11  -9  18 828.398 75.2723  11
  11 -18  -9 806.309 80.3643   9
   9 -18 -11 782.941 76.6694   9
 -11 -10  18 567.618 70.8859  11
 -10 -11  18 549.710 69.8024  11
  11 -18 -10 546.731 73.5418   9
  10 -18 -11 580.781 72.8793   9
 -11 -11  18 552.903 70.9386  11
  11 -11 -18 551.525 74.6281   9
  11 -18 -11 554.774 73.7023   9
  18 -12  12 210.423 57.5102   8
 -12  12  18 199.217 71.1481   3
  11 -12  18 524.122 63.9949   8
  18 -11  12 404.185 63.4340   8
  12 -11  18 528.738 61.2377   8
 -11  12  18 562.592 78.2184   3
 -12  11  18 574.155 74.8165   3
  10 -12  18 455.408 67.3990   8
  12 -10  18 537.897 69.7834   8
 -10  12  18 393.940 78.8731   3
 -12  10  18 302.982 78.3817   3
   9 -12  18 2049.39 89.8503   8
  12  -9  18 2227.18 86.3160   8
 -12   9  18 2045.77 99.7893   3
  12  -8  18 393.111 67.0807   8
   8 -12  18 293.492 74.2128   8
 -18  -8 -12 153.696 67.9892  10
 -12   8  18 248.092 94.0630   3
   7 -12  18 1590.95 87.4849   8
  12  -7  18 1643.12 85.2798   8
 -12   7  18 1736.73 101.153   3
 -18 -12  -7 1652.41 84.6616  10
 -18  -7 -12 1711.76 84.5783  10
 -18 -12  -6 52.5041 80.8871  10
  -6 -18 -12 82.5536 72.8423   4
  -6 -12 -18 160.222 76.5834   4
  12  -6  18 63.4050 63.9868   8
  12  -5  18 809.423 68.6050   8
 -18 -12  -5 979.222 86.3886  10
  -5 -18 -12 978.382 85.7892   4
  -5 -12 -18 1004.34 86.2379   4
 -12   4  18 157.037 84.9777   3
  -4 -18 -12 120.525 78.5488   4
  -4 -12 -18 120.707 84.2439   4
 -18 -12  -4 82.5456 78.8102  10
 -12   3  18 274.925 95.7337   3
  -3 -18 -12 220.496 80.4377   4
  -3 -12 -18 254.512 86.4355   4
 -18 -12  -3 152.553 81.5031  10
 -12   2  18 341.413 96.8702   3
  -2 -12 -18 380.926 90.7670   4
  -2 -18 -12 452.986 87.6851   4
 -18 -12  -2 531.940 81.1274  10
 -12   1  18 438.773 89.7426   3
  -1 -18 -12 305.508 83.8603   4
  -1 -12 -18 377.502 87.4459   4
 -18 -12  -1 444.420 71.6104  10
   0 -12 -18 1243.45 89.8452   4
 -18 -12   0 1299.10 81.9797  10
 -12   0  18 1310.24 93.5326   3
   0 -18 -12 1363.94 94.1420   4
 -12  -1  18 259.306 84.3571   3
   1 -12 -18 221.360 90.0054   4
   1 -18 -12 103.015 79.9212   4
   2 -18 -12 77.1547 86.7181   4
   2 -12 -18 211.280 82.0314   4
   3 -12 -18 189.982 86.6751   4
   3 -18 -12 240.623 81.0242   4
  -3 -12  18 205.826 69.3119  11
 -12  -3  18 150.520 67.2407  11
   4 -12 -18 143.875 80.4769   4
   4 -18 -12 157.203 80.2480   4
  -4 -12  18 128.184 72.0449  11
 -12  -4  18 201.173 71.5549  11
   5 -18 -12 791.159 80.2711   4
 -12  -5  18 903.471 80.9329  11
  -5 -12  18 712.984 71.3161  11
   5 -12 -18 843.760 75.6437   4
  -6 -12  18 232.314 66.5645  11
 -12  -6  18 287.628 80.4534  11
   6 -18 -12 265.911 75.0081   9
 -12  -7  18 1873.73 92.6790  11
  -7 -12  18 1674.24 81.5485  11
   7 -18 -12 1764.56 86.3097   9
  -8 -12  18 136.360 65.0859  11
 -12  -8  18 194.208 70.4806  11
   8 -18 -12 224.198 73.9271   9
  -9 -12  18 1434.39 77.5913  11
   9 -18 -12 1397.52 83.8500   9
  12  -9 -18 1359.93 80.5708   9
 -12 -10  18 423.451 73.2166  11
 -10 -12  18 445.485 69.8310  11
  12 -10 -18 406.691 72.8320   9
  10 -12 -18 504.307 72.2353   9
  12 -18 -10 381.002 72.3561   9
  10 -18 -12 382.418 72.2195   9
 -11 -12  18 666.717 63.9838  11
 -12 -11  18 642.558 64.4014  11
  11 -12 -18 618.290 70.4641   9
  12 -11 -18 683.928 68.7020   9
  12 -18 -11 576.258 67.0817   9
  11 -18 -12 596.566 67.9282   9
 -12 -12  18 79.7082 62.1429  11
  12 -18 -12 139.229 64.1688   9
  12 -12 -18 156.619 66.6670   9
  18 -13  13 327.302 47.5095   8
  13 -13  18 308.943 43.2762   8
 -13  13  18 305.453 50.5625   3
  18 -13  12 278.127 52.6207   8
  12 -13  18 250.651 53.6053   8
  18 -12  13 328.992 54.3999   8
 -13  12  18 238.837 61.0405   3
 -12  13  18 345.869 63.2397   3
  13 -11  18 751.076 60.8463   8
  18 -13  11 680.221 55.1936   8
  11 -13  18 667.303 62.1334   8
 -13  11  18 689.693 68.5473   3
 -11  13  18 740.227 72.9256   3
  18 -10  13 141.338 56.7206   8
  10 -13  18 153.613 55.2623   8
  13 -10  18 99.2274 62.7146   8
 -10  13  18 216.152 75.1860   3
 -13  10  18 86.9830 75.2933   3
  13  -9  18 577.167 64.5464   8
   9 -13  18 472.571 68.2008   8
 -13   9  18 572.617 82.2168   3
  13  -8  18 209.297 62.1372   8
 -18 -13  -8 184.322 67.8140  10
 -13   8  18 341.726 81.3086   3
  13  -7  18 712.440 71.8209   8
 -13   7  18 832.101 93.2598   3
 -18 -13  -7 711.920 79.9742  10
  13  -6  18 149.278 62.0418   8
  -6 -18 -13 162.672 72.4807   4
  -6 -13 -18 317.722 74.4946   4
 -13   6  18 168.889 93.6835   3
 -18 -13  -6 170.393 69.9469  10
  13  -5  18 265.988 63.4892   8
 -18 -13  -5 357.588 70.6797  10
  -5 -13 -18 441.400 80.6637   4
  -5 -18 -13 296.170 75.8331   4
 -18 -13  -4 136.519 69.8611  10
  -4 -18 -13 49.6627 83.6123   4
  -4 -13 -18 69.7148 81.6161   4
 -13   3  18 253.322 91.7938   3
 -18 -13  -3 160.127 70.7537  10
  -3 -13 -18 304.350 84.1148   4
  -3 -18 -13 239.918 86.2482   4
 -13   2  18 458.493 96.4653   3
 -18 -13  -2 333.108 76.2452  10
  -2 -13 -18 484.473 89.4054   4
  -2 -18 -13 404.147 81.7773   4
 -13   1  18 369.982 93.4829   3
 -18 -13  -1 326.947 71.0010  10
  -1 -13 -18 262.804 84.4124   4
  -1 -18 -13 395.124 89.3851   4
   0 -13 -18 188.199 81.8310   4
   0 -18 -13 104.142 89.5893   4
 -13   0  18 144.661 82.0952   3
   1 -13 -18 252.827 86.3445   4
   1 -18 -13 264.493 86.8382   4
   2 -13 -18 570.191 84.5375   4
   2 -18 -13 451.809 80.7758   4
   3 -18 -13 58.3961 75.3120   4
   3 -13 -18 229.039 83.5602   4
 -13  -3  18 33.4806 66.7478  11
   4 -18 -13 82.5945 73.2757   4
   4 -13 -18 213.069 78.3836   4
 -13  -4  18 124.897 73.2849  11
   5 -18 -13 225.007 76.3478   4
   5 -13 -18 270.301 71.0968   4
 -13  -5  18 154.739 72.8030  11
  -6 -13  18 189.110 67.2184  11
 -13  -6  18 88.9378 76.4544  11
   6 -18 -13 234.924 73.2766   9
  -7 -13  18 507.736 67.0506  11
 -13  -7  18 574.548 78.6333  11
   7 -18 -13 579.952 71.7435   9
 -13  -8  18 141.068 68.6027  11
  -8 -13  18 205.688 63.6483  11
   8 -18 -13 143.865 72.5307   9
  -9 -13  18 522.303 66.4523  11
   9 -13 -18 520.228 74.1697   9
   9 -18 -13 577.747 72.9319   9
  13  -9 -18 435.226 66.7622   9
 -10 -13  18 278.299 60.4921  11
 -13 -10  18 180.098 68.1528  11
  10 -13 -18 177.538 67.2663   9
  10 -18 -13 149.652 67.6599   9
  13 -10 -18 115.100 64.7567   9
 -13 -11  18 476.372 65.0098  11
 -11 -13  18 496.841 56.6684  11
  11 -18 -13 431.935 62.0526   9
  13 -11 -18 434.024 62.2194   9
  11 -13 -18 475.969 64.6737   9
 -12 -13  18 248.205 54.3471  11
  12 -18 -13 187.315 56.2300   9
  13 -12 -18 257.393 59.3765   9
  12 -13 -18 144.342 61.1669   9
  13 -13 -18 240.591 54.4534   9
  18 -13  14 372.341 41.7048   8
  18 -14  13 343.938 37.7984   8
  14 -13  18 254.671 41.5775   8
  18 -12  14 103.064 46.8758   8
  18 -14  12 99.2958 41.3278   8
 -14  12  18 181.473 50.4289   3
 -12  14  18 113.429 48.8323   3
  18 -14  11 373.256 51.0031   8
  14 -11  18 367.679 51.0292   8
 -14  11  18 407.568 60.9400   3
 -11  14  18 338.755 61.9736   3
  18 -14  10 54.9499 48.8044   8
  14 -10  18 55.8009 52.0901   8
  18 -10  14 74.0022 51.3249   8
 -10  14  18 166.048 66.8109   3
 -14  10  18 90.4477 64.0231   3
  14  -9  18 1129.28 67.4860   8
  18  -9  14 1106.32 63.3038   8
 -14   9  18 1172.18 81.0921   3
  14  -8  18 36.4759 62.7211   8
  18  -8  14 142.082 62.2502   8
 -14   8  18 201.429 74.2250   3
  14  -7  18 1164.01 69.6233   8
  18  -7  14 1181.90 73.2498   8
 -14   7  18 1235.27 91.9645   3
 -18 -14  -7 1158.32 72.6676  10
  14  -6  18 379.486 61.1691   8
  18  -6  14 349.856 65.8328   8
  -6 -18 -14 314.426 69.1468   4
  -6 -14 -18 410.351 71.2321   4
 -14   6  18 340.284 83.5520   3
 -18 -14  -6 245.689 70.9100  10
  18  -5  14 552.171 62.5509   8
 -14   5  18 652.711 88.5034   3
  -5 -14 -18 500.946 75.0090   4
  -5 -18 -14 583.078 73.9700   4
 -18 -14  -5 521.624 73.5497  10
  -4 -18 -14 674.408 83.1180   4
  -4 -14 -18 723.134 81.9380   4
 -18 -14  -4 538.450 68.7125  10
  -3 -14 -18 270.600 82.0967   4
  -3 -18 -14 298.482 83.4366   4
 -18 -14  -3 412.361 69.8232  10
 -14   2  18 436.442 90.7247   3
  -2 -14 -18 460.229 85.5173   4
  -2 -18 -14 375.127 79.9263   4
 -18 -14  -2 513.963 66.9557  10
 -14   1  18 174.540 90.5010   3
  -1 -18 -14 155.028 85.5662   4
  -1 -14 -18 191.835 82.5607   4
   0 -18 -14 823.479 89.6260   4
   0 -14 -18 775.700 82.9068   4
   1 -18 -14 129.812 85.7662   4
   1 -14 -18 58.9169 83.0882   4
   2 -18 -14 350.818 78.7530   4
   2 -14 -18 420.538 79.4225   4
   3 -18 -14 320.266 75.8125   4
   3 -14 -18 358.991 80.9228   4
 -14  -3  18 370.952 71.3315  11
   4 -18 -14 668.817 75.2469   4
 -14  -4  18 797.823 75.7066  11
   4 -14 -18 714.975 76.7356   4
   5 -18 -14 594.061 68.8615   9
   5 -18 -14 635.814 75.8798   4
 -14  -5  18 529.490 68.5697  11
   5 -14 -18 737.454 72.6754   4
 -14  -6  18 192.283 72.2401  11
   6 -18 -14 286.213 70.0548   9
 -14  -7  18 1341.46 81.3416  11
   7 -14 -18 1452.21 84.1710   9
 -14  -8  18 100.017 66.5148  11
 -18  -8  14-89.1036 70.7434  12
   8 -14 -18 61.7962 68.8011   9
   8 -18 -14 189.391 67.0608   9
  -9 -14  18 814.389 59.0777  11
   9 -18 -14 846.828 69.1647   9
 -14 -10  18 106.636 60.7212  11
 -18 -10  14 64.7527 59.0411  12
 -10 -14  18-6.17714 54.1790  11
  10 -18 -14 84.5278 59.7958   9
  10 -14 -18 75.8856 64.3611   9
  11 -18 -14 511.472 60.8309   9
  14 -11 -18 455.709 55.2185   9
  12 -18 -14 37.4408 52.4934   9
  14 -12 -18 69.7379 48.7841   9
  12 -14 -18 172.113 51.3941   9
  14 -13 -18 257.766 44.3956   9
  13 -14 -18 350.223 46.1991   9
  15 -12  18 101.709 37.0649   8
  18 -11  15 409.410 45.8968   8
  18 -15  11 388.846 41.8982   8
  15 -11  18 401.132 45.7123   8
 -15  11  18 331.776 49.4015   3
 -11  15  18 313.443 51.1876   3
  18 -10  15 74.4302 45.5969   8
  15 -10  18 25.9520 45.6938   8
  18 -15  10 13.7690 41.7362   8
 -10  15  18-25.5574 53.1040   3
 -15  10  18-16.8189 56.3017   3
  18 -15   9 353.768 46.2452   8
  18  -9  15 352.553 55.8108   8
  15  -9  18 446.891 53.9496   8
  -9  15  18 529.879 65.4160   3
 -15   9  18 398.518 62.5755   3
  15  -8  18 124.584 50.9785   8
  18  -8  15 112.707 52.5284   8
 -15   8  18 132.732 66.4617   3
  15  -7  18 248.164 57.1791   8
  18  -7  15 227.269 54.1776   8
 -15   7  18 380.725 75.5788   3
  18  -6  15 73.0358 54.7809   8
  15  -6  18 90.2253 52.4511   8
 -15   6  18 149.260 75.5468   3
  -6 -15 -18-32.8400 61.6012   4
  -6 -18 -15-77.8367 64.9052   4
  18  -5  15 57.2109 57.8743   8
 -15   5  18-8.49867 78.7964   3
  -5 -18 -15 139.396 71.3086   4
  -5 -15 -18 130.818 67.0398   4
 -18 -15  -5 140.505 62.8049  10
 -15   4  18 402.609 83.7791   3
 -18 -15  -4 355.243 62.0793  10
  -4 -18 -15 373.745 72.1442   4
  -4 -15 -18 267.468 75.5199   4
 -18 -15  -3 683.490 67.9609  10
  -3 -15 -18 658.765 81.2899   4
  -3 -18 -15 693.784 76.5887   4
  -2 -18 -15 374.392 76.9984   4
  -2 -15 -18 260.072 78.3768   4
  -1 -18 -15 2435.79 102.823   4
  -1 -15 -18 2512.90 104.147   4
   0 -15 -18 167.495 79.8569   4
   0 -18 -15 61.0747 82.8546   4
   1 -18 -15 2520.82 100.661   4
   1 -15 -18 2450.24 104.198   4
   2 -18 -15 420.484 79.5407   4
   2 -15 -18 428.256 74.8443   4
   3 -18 -15 951.866 76.2268   4
   3 -15 -18 875.679 77.0416   4
 -15  -3  18 928.618 66.9696  11
 -15  -4  18 139.627 62.1323  11
   4 -18 -15 305.428 72.2259   4
   4 -15 -18 187.803 67.6699   4
   5 -15 -18 163.936 70.6547   9
   5 -18 -15 50.5352 65.1233   9
 -15  -5  18 109.935 64.0065  11
   5 -18 -15 82.8954 63.6867   4
   5 -15 -18 54.5448 67.1371   4
 -15  -6  18 39.5176 61.8873  11
 -18  -6  15 95.2397 73.8595  12
 -15  -6  18-52.9646 61.7066  12
   6 -15 -18 133.400 70.6961   9
   6 -18 -15 60.6028 62.3199   9
 -15  -7  18 141.817 64.3140  11
 -15  -7  18-62.3553 61.2752  12
 -18  -7  15-0.49684 70.2652  12
   7 -15 -18 222.216 69.4328   9
   7 -18 -15 210.334 64.2822   9
 -18  -8  15 14.4206 61.1211  12
   8 -18 -15 125.777 59.2544   9
   8 -15 -18 199.412 65.8065   9
   9 -18 -15 500.212 59.4602   9
   9 -15 -18 384.126 60.7967   9
 -18 -10  15 17.3489 56.6645  12
  10 -18 -15 81.6763 56.0728   9
  11 -18 -15 447.073 52.4138   9
  11 -15 -18 342.066 52.1917   9
  12 -15 -18 97.2936 47.9240   9
  18 -11  16 185.835 36.1884   8
  16 -11  18 129.669 34.6930   8
  18 -10  16 67.7285 39.3666   8
  16 -10  18 8.99820 38.7108   8
 -10  16  18 119.875 45.4455   3
  18  -9  16 265.027 43.8920   8
  16  -9  18 207.284 46.9527   8
  -9  16  18 250.568 50.0857   3
 -16   9  18 259.985 56.1980   3
  16  -8  18 145.319 47.8325   8
  18  -8  16 155.095 48.7679   8
 -16   8  18 147.140 61.5985   3
  16  -7  18 338.470 51.5387   8
  18  -7  16 343.303 52.7050   8
 -16   7  18 442.791 69.5907   3
  16  -6  18 74.1719 48.0253   8
  18  -6  16 73.6407 48.9357   8
  -6 -16 -18 104.594 58.6158   4
  -6 -18 -16 151.344 56.6220   4
  -5 -18 -16 205.340 61.3003   4
  -5 -16 -18 31.6836 64.3864   4
  -4 -16 -18 58.4371 64.6477   4
  -4 -18 -16 87.2278 68.3386   4
  -3 -16 -18 97.0200 68.5907   4
  -3 -18 -16 15.1982 72.7699   4
  -2 -18 -16 73.4874 72.4582   4
  -2 -16 -18 56.8595 70.9943   4
  -1 -16 -18 13.6506 76.4193   4
  -1 -18 -16 209.724 76.6857   4
   0 -18 -16 132.881 74.4594   4
   0 -16 -18 50.2336 77.8133   4
   1 -18 -16 161.490 75.5640   4
   1 -16 -18 91.2102 74.1879   4
   2 -18 -16 91.7105 68.9777   4
   2 -16 -18 53.3091 69.0393   4
   3 -16 -18 92.1134 62.6184   9
   3 -18 -16 98.5654 66.9199   4
   3 -16 -18 111.833 66.1000   4
   4 -16 -18-11.4634 62.7566   9
 -18  -4  16-141.984 64.7916  12
   4 -16 -18 40.0085 64.5175   4
   5 -16 -18 123.989 60.6170   9
   5 -18 -16 91.2885 57.7320   9
 -18  -5  16-68.3759 63.4190  12
 -16  -5  18-48.3458 65.8269  12
   5 -18 -16 186.687 60.5256   4
   5 -16 -18 95.1061 58.0158   4
 -16  -6  18 28.0775 58.6734  12
   6 -18 -16 100.421 58.5568   9
   6 -16 -18 123.659 61.6808   9
   7 -18 -16 368.501 56.9710   9
   7 -16 -18 428.320 62.6702   9
 -18  -8  16-98.1030 58.3744  12
 -16  -8  18 18.3095 51.5332  12
   8 -18 -16 221.303 53.9227   9
   8 -16 -18 104.416 56.4002   9
 -18  -9  16-5.43897 53.2921  12
   9 -18 -16 121.763 51.8818   9
   9 -16 -18 174.512 52.7835   9
 -18 -10  16-39.9548 45.9214  12
  10 -18 -16 14.9574 46.4304   9
  10 -16 -18 24.3077 48.6692   9
  11 -18 -16 224.218 43.8798   9
  18  -9  17 67.5447 35.5081   8
  17  -9  18 51.7831 37.1318   8
  18  -8  17 174.501 39.8361   8
  17  -8  18 102.969 39.2042   8
  -8  17  18 83.5883 47.4546   3
  -8  18  17 73.7083 42.7636   3
  18  -7  17 7.17782 41.2618   8
  17  -7  18 46.5633 39.4812   8
  18  -6  17 212.031 41.5933   8
  -5 -17 -18 415.256 55.7095   4
  -5 -18 -17 399.418 57.8166   4
  -4 -18 -17 578.428 61.9201   4
  -4 -17 -18 598.439 64.4345   4
  -3 -18 -17 2079.56 83.3531   4
  -3 -17 -18 1907.66 82.2913   4
  -2 -18 -17 455.289 66.9968   4
  -2 -17 -18 381.538 69.8704   4
  -1 -18 -17 2255.78 89.4079   4
  -1 -17 -18 2165.82 87.2835   4
   0 -18 -17 133.736 66.5039   4
   0 -17 -18 159.377 66.8700   4
   1 -18 -17 2320.41 89.6401   4
   1 -17 -18 2170.07 86.8936   4
   2 -18 -17 485.633 65.0528   4
   2 -17 -18 495.403 67.7962   4
   3 -18 -17 2238.26 82.7430   4
   3 -17 -18 2205.18 85.5706   4
   4 -17 -18 358.257 57.9161   4
   4 -18 -17 389.253 58.0014   4
   4 -17 -18 499.068 55.3493   9
   5 -18 -17 550.569 54.4844   4
   5 -17 -18 558.428 55.5459   9
   5 -17 -18 602.861 56.4668   4
   6 -18 -17 90.6931 50.4620   9
   6 -17 -18 118.379 54.0393   9
 -17  -6  18 134.697 52.1162  12
 -18  -6  17 46.2594 53.1569  12
   7 -18 -17 114.191 49.4834   9
   7 -17 -18 24.8053 49.8037   9
 -17  -7  18 32.8260 51.1747  12
 -18  -7  17 29.8056 52.2806  12
   8 -18 -17 177.762 48.0703   9
   8 -17 -18 35.8143 49.3476   9
 -18  -8  17 79.9158 47.0937  12
   9 -18 -17 174.601 43.1283   9
   9 -17 -18 119.527 43.9779   9
  -5 -18 -18-13.1301 45.2284   4
  -4 -18 -18 271.704 52.9323   4
  -3 -18 -18 50.3451 52.7211   4
  -2 -18 -18 435.672 56.5143   4
  -1 -18 -18 55.5592 59.4445   4
   0 -18 -18 36.8798 60.7300   4
   1 -18 -18-34.1296 57.4535   4
   2 -18 -18 272.890 57.8548   4
 -18  -2  18-73.2608 54.9562  12
   3 -18 -18 58.6840 54.0850   4
 -18  -3  18-51.8208 57.8074  12
   4 -18 -18 259.762 48.8958   4
 -18  -4  18-88.2177 50.8594  12
   5 -18 -18-58.4204 44.2452   4
 -18  -5  18 48.7248 47.6828  12
 -18  -6  18-101.202 49.2326  12
 -19   0   0 93.8781 243.762   2
   0   0 -19 238.568 209.473   5
 -19  -1  -1-23.2040 202.945   2
  -1  -1 -19 69.8622 204.902   5
 -19  -1   0 687.300 243.649   2
 -19   0  -1 397.211 219.612   2
   1   0 -19 357.062 203.760   5
   0  -1 -19-101.575 211.860   5
  -1   0 -19-26.1982 211.111   5
   1  -1 -19 21.3640 209.436   5
 -19  -2  -2 129.158 229.557   2
  -2  -2 -19-27.7942 226.266   5
 -19  -2  -1 2107.14 236.167   2
 -19  -1  -2 1652.46 262.434   2
  -1  -2 -19 1826.79 242.834   5
  -2  -1 -19 1994.99 237.656   5
 -19  -2   0 2086.39 228.739   2
 -19   0  -2 1669.04 260.530   2
 -19   0   2 1840.31 224.292   2
   2   0 -19 1971.64 201.284   5
   0  -2 -19 1361.89 233.273   5
  -2   0 -19 2028.09 237.107   5
 -19  -1   2 1883.80 232.675   2
  -2   1 -19 1874.92 216.333   5
   2  -1 -19 2250.75 227.706   5
   1  -2 -19 1839.44 240.837   5
 -19  -2   2 296.484 237.281   2
   2  -2 -19 104.618 191.150   5
 -19  -3  -3 349.626 213.403   2
  -3  -3 -19 251.856 196.132   5
  -2  -3 -19 4438.91 276.633   5
  -3  -2 -19 4727.54 286.460   5
 -19  -3  -2 3996.42 253.832   2
 -19  -2  -3 4392.78 288.448   2
 -19  -1  -3-215.065 233.654   2
 -19  -3  -1 505.593 247.503   2
  -3  -1 -19 396.033 222.057   5
  -1  -3 -19 213.725 217.445   5
 -19   0  -3 440.603 214.156   2
 -19   0   3 349.221 241.111   2
 -19  -3   0 153.906 229.407   2
  -3   0 -19 10.6670 202.948   5
   3   0 -19 511.008 204.978   5
   0  -3 -19 421.338 217.804   5
 -19  -1   3 28.7203 231.162   2
  -3   1 -19 376.552 199.256   5
   3  -1 -19 75.7643 206.680   5
   1  -3 -19 224.831 187.085   5
   3  -2 -19 4732.39 285.887   5
   2  -3 -19 4679.95 290.525   5
 -19  -3   2 4772.65 299.989   2
 -19  -2   3 4291.45 259.273   2
 -19  -3   3 371.381 227.981   2
   3  -3 -19 80.0340 204.188   5
 -19  -4  -4 157.940 219.751   2
  -4  -4 -19 414.121 196.688   5
  -4  -3 -19 2046.26 248.282   5
  -3  -4 -19 2024.52 260.452   5
 -19  -4  -3 2082.11 238.788   2
 -19  -3  -4 2184.15 213.070   2
 -19  -4  -2 595.229 240.969   2
 -19  -2  -4 803.786 227.280   2
  -4  -2 -19 455.356 199.161   5
  -2  -4 -19 664.262 243.174   5
 -19  -1  -4 215.390 225.140   2
 -19  -4  -1-79.1583 204.738   2
  -4  -1 -19-82.4568 195.972   5
  -1  -4 -19 189.133 232.635   5
 -19   0  -4 595.334 229.331   2
 -19   0   4 1183.90 247.348   2
 -19  -4   0 510.490 242.748   2
  -4   0 -19 691.179 191.231   5
   0  -4 -19 623.726 236.265   5
 -19  -1   4 478.977 233.068   2
 -19   1  -4 568.919 230.221   2
   4  -1 -19 575.399 187.529   5
   1  -4 -19 533.289 231.513   5
  -4   1 -19 484.552 208.292   5
 -19  -4   2 717.247 200.590   2
 -19  -2   4 907.006 208.094   2
   4  -2 -19 844.353 198.489   5
   2  -4 -19 716.962 199.926   5
   3  -4 -19 2747.85 266.604   5
   4  -3 -19 2709.02 262.440   5
 -19  -4   3 2559.94 262.845   2
 -19  -3   4 2527.64 246.817   2
 -19  -4   4 27.5685 230.385   2
   4  -4 -19 204.956 226.106   5
 -19  -5  -5-111.514 205.603   2
  -5 -19  -5 115.579 83.9493   4
 -19  -5  -5 36.7057 84.0579  10
  -5 -19  -4 816.372 87.5885   4
  -4 -19  -5 751.598 78.4672   4
 -19  -5  -4 706.880 198.172   2
 -19  -4  -5 869.423 198.956   2
  -5  -4 -19 1129.99 242.362   5
 -19  -4  -5 594.866 82.9753  10
 -19  -5  -4 800.385 90.1885  10
  -5  -3 -19 207.074 231.027   5
 -19  -5  -3-5.52985 219.430   2
 -19  -3  -5-58.5026 207.697   2
  -5  -2 -19 1363.03 235.574   5
  -2  -5 -19 1048.01 250.951   5
 -19  -5  -2 1148.94 208.622   2
 -19  -2  -5 1499.78 189.264   2
  -5  -1 -19 365.887 206.206   5
  -1  -5 -19 238.461 236.152   5
 -19   1   5 102.314 188.018   2
 -19  -5  -1 175.380 231.862   2
 -19  -1  -5-133.232 187.736   2
   0  -5 -19 174.354 233.558   5
 -19   0  -5 54.3439 207.276   2
 -19   0   5-11.2576 199.482   2
 -19  -5   0 238.322 210.159   2
   5  -1 -19 425.190 199.883   5
   1  -5 -19 215.597 231.191   5
 -19  -1   5 165.192 185.698   2
 -19   1  -5 395.617 203.354   2
   5  -2 -19 1118.19 205.113   5
   2  -5 -19 1245.78 214.499   5
 -19  -5   2 1010.28 247.439   2
 -19  -2   5 1143.39 203.211   2
   5  -3 -19 161.399 234.075   5
   3  -5 -19 201.561 238.210   5
 -19  -5   3 44.6454 206.350   2
 -19  -3   5 445.387 223.025   2
  -5  -4  19 927.010 87.1248  11
  -4  -5  19 936.578 81.1212  11
 -19  -5   4 1131.59 199.924   2
 -19  -4   5 902.141 206.776   2
   5  -4 -19 852.340 233.562   5
   4  -5 -19 1106.20 253.259   5
   5 -19  -4 865.722 74.9914   4
   4 -19  -5 830.976 83.3204   4
 -19  -5   5-85.8870 84.9328  12
  -5  -5  19 3.74601 86.1354  11
   5 -19  -5 57.5244 77.9656   4
 -19  -5   5 140.006 213.845   2
   5  -5 -19-167.016 236.058   5
   6  -6  19 61.8329 65.8821   8
  -6  -6 -19-9.44587 74.3073   4
  -6 -19  -6 43.1705 74.6408   4
 -19  -6  -6-51.7597 85.3532  10
  -5  -6 -19 306.001 241.705   5
 -19  -5  -6 352.028 85.2248  10
 -19  -6  -5 302.277 87.6898  10
  -5 -19  -6 256.029 84.1271   4
  -6 -19  -5 251.179 73.8038   4
   6  -5  19 182.794 66.0234   8
  -5  -6 -19 229.808 83.6675   4
 -19  -6  -5 292.693 182.072   2
 -19  -4  -6 681.613 85.7999  10
 -19  -6  -4 597.557 83.1472  10
  -6 -19  -4 736.132 80.5390   4
  -4 -19  -6 626.841 79.7985   4
  -4  -6 -19 414.422 218.044   5
  -6   4  19 562.016 75.4596   3
 -19  -3  -6 609.831 83.3093  10
 -19  -6  -3 555.217 84.0828  10
 -19  -6  -3 371.938 226.600   2
  -3 -19  -6 600.913 79.5176   4
  -3  -6 -19 699.533 213.593   5
  -6   3  19 510.743 83.6642   3
 -19  -2  -6 985.010 75.0339  10
 -19  -6  -2 888.083 240.427   2
  19  -2   6 909.760 243.027   7
  -2 -19  -6 1262.40 94.2449   4
  -2  -6 -19 797.251 236.458   5
  -1 -19  -6 697.838 79.3338   4
 -19  -6  -1 689.714 90.2925  10
 -19   1   6 493.667 221.718   2
 -19  -6  -1 515.149 200.697   2
 -19   0   6 311.628 216.412   2
 -19  -6   0 459.857 236.784   2
 -19  -6   1 988.299 89.9219  10
  -6  -1  19 890.924 76.5136  11
  -1  -6  19 1070.14 91.0062  11
   6  -1 -19 1247.24 199.856   5
   1 -19  -6 979.054 81.4306   4
 -19  -1   6 860.057 224.163   2
 -19  -6   2 1629.45 87.0717  10
 -19  -6   2 1393.23 212.130   2
 -19  -2   6 1689.53 227.913   2
  -6  -2  19 1796.65 93.7474  11
  -2  -6  19 1807.06 100.992  11
   6  -2 -19 1797.77 212.436   5
   2 -19  -6 2084.31 100.971   4
 -19  -6   3 468.390 85.3275  10
 -19  -6   3 457.764 229.447   2
 -19  -3   6 444.263 177.086   2
   3 -19  -6 642.357 82.9882   4
  -6  -3  19 550.749 73.0187  11
   6  -3 -19 604.053 232.941   5
   3  -6 -19 629.258 203.906   5
  -6  -4  19 965.788 84.1261  11
 -19  -6   4 886.254 85.1747  10
 -19  -6   4 983.864 235.008   2
 -19  -4   6 882.213 215.941   2
   4 -19  -6 823.323 84.3432   4
   6  -4 -19 778.936 240.627   5
   4  -6 -19 1025.31 236.313   5
   4  -6 -19 953.700 90.7484   4
   5  -6 -19 108.599 73.5542   4
 -19  -6   5 252.881 192.022   2
 -19  -5   6 324.578 180.325   2
 -19  -6   5 291.987 80.8345  10
 -19  -5   6-163.434 84.8957  12
 -19  -6   5 46.2176 82.5090  12
  -6  -5  19 204.308 76.3577  11
  -5  -6  19 192.194 77.5611  11
   5 -19  -6 152.370 77.8363   4
  19  -5  -6 18.5584 218.944   6
   6  -5 -19 350.219 238.737   5
   5  -6 -19-156.236 239.413   5
 -19  -6   6 67.9433 203.375   2
  -6  -6  19 51.2469 75.9795  11
 -19  -6   6 112.904 81.1099  12
 -19  -6   6 35.9969 77.0055  10
  19  -6  -6 6.23490 197.740   6
   6  -6 -19-95.7575 210.953   5
   7  -7  19 120.991 76.3355   8
 -19  -7  -7-7.30859 77.8069  10
   6  -7  19 3.57644 71.9672   8
   7  -6  19 11.6921 76.8471   8
  -6  -7 -19 102.731 83.0455   4
  -6 -19  -7 116.810 78.5882   4
 -19  -6  -7 174.502 84.3105  10
 -19  -7  -6 112.766 78.2166  10
 -19  -5  -7 98.2622 82.0625  10
 -19  -7  -5 41.0965 74.5043  10
  -5  -7 -19 99.2587 77.8855   4
  -5 -19  -7 70.9861 84.6182   4
   7  -5  19 11.5797 76.5896   8
  -5  -7 -19 152.275 197.463   5
  -7   5  19 102.424 89.2653   3
  -4  -7 -19 688.587 233.481   5
 -19  -4  -7 210.278 75.3810  10
 -19  -7  -4 319.315 87.4281  10
 -19  -7  -4 469.719 185.654   2
  -4  -7 -19 214.460 89.4858   4
  -4 -19  -7 253.109 84.1939   4
  19  -4   7-113.572 242.902   7
  -7   4  19 244.449 88.8795   3
  -3  -7 -19 272.782 240.067   5
 -19  -3  -7 341.184 74.5527  10
 -19  -7  -3 445.465 189.313   2
  -3 -19  -7 389.848 86.2833   4
  -3  -7 -19 158.146 91.0236   4
  19  -3   7 279.144 238.133   7
  -7   3  19 328.449 85.6555   3
  -2  -7 -19 455.746 228.627   5
 -19  -7  -2 542.023 89.9064  10
 -19  -7  -2 473.630 198.951   2
  -2 -19  -7 523.452 91.7154   4
  19  -2   7 433.376 219.394   7
  -2  -7 -19 503.005 82.6086   4
  -7   2  19 551.391 72.5151   3
 -19  -7  -1 1098.91 92.5888  10
  -1  -7 -19 978.373 96.3726   4
  -1 -19  -7 978.772 87.9512   4
  -1  -7 -19 795.661 229.515   5
 -19  -7  -1 1243.63 251.655   2
 -19  -7   0 144.263 86.2885  10
 -19  -7   0 256.263 234.198   2
   0  -7 -19 62.9324 92.9395   4
   0  -7 -19-212.671 236.166   5
 -19  -7   1 1368.07 90.6508  10
   1  -7 -19 1272.55 97.5672   4
  -7  -1  19 1315.32 77.7804  11
  -1  -7  19 1561.20 94.3548  11
   7  -1 -19 1432.06 214.343   5
   1 -19  -7 1331.53 93.3856   4
   1  -7 -19 1012.72 247.053   5
  -7  -2  19 361.258 76.5356  11
  -2  -7  19 489.361 87.2779  11
 -19  -7   2 444.604 78.2778  10
 -19  -7   2 401.370 235.495   2
   2 -19  -7 480.529 86.0883   4
   2  -7 -19 509.803 87.3815   4
   7  -2 -19 363.933 224.278   5
   2  -7 -19 344.775 200.289   5
 -19  -7   3 423.819 76.0794  10
  -3  -7  19 403.659 84.9278  11
  -7  -3  19 580.551 81.9063  11
   3  -7 -19 442.317 79.6130   4
   3 -19  -7 603.592 87.3539   4
   3  -7 -19 720.172 247.172   5
   7  -3 -19 762.179 195.859   5
 -19  -7   3 307.515 226.927   2
 -19  -7   4 324.476 217.434   2
 -19  -7   4 393.848 77.9085  10
  -4  -7  19 500.118 85.1940  11
 -19  -7   4-221.998 78.7567  12
 -19  -4   7-173.848 77.8586  12
  -7  -4  19 564.399 84.1779  11
   4  -7 -19 370.799 76.8813   4
   4 -19  -7 478.425 83.9721   4
  19  -4  -7 294.599 227.585   6
   4  -7 -19 553.551 241.795   5
   7  -4 -19 472.525 227.264   5
 -19  -7   5 268.476 215.565   2
  -5  -7  19 132.536 86.0655  11
 -19  -7   5-114.119 87.1319  12
 -19  -5   7-70.9012 87.4726  12
  -7  -5  19 208.991 83.1325  11
   5 -19  -7 211.441 71.1372   4
   5  -7 -19 272.795 85.0868   4
 -19  -7   5 163.024 69.4547  10
   7  -5 -19 194.820 204.989   5
 -19  -7   6 92.2608 85.8405  12
  -7  -6  19-71.9264 85.8830  11
 -19  -7   7-56.8944 89.0958  12
   8  -8  19 43.8528 66.7614   8
 -19  -8  -8 24.5023 78.1416  10
   7  -8  19 142.330 73.1204   8
   8  -7  19 77.6138 77.3585   8
 -19  -8  -7 156.586 78.6008  10
 -19  -7  -8 47.7838 73.3374  10
  -8   7  19-94.0065 95.0498   3
   6  -8  19 214.257 78.7805   8
   8  -6  19 125.294 67.9356   8
  -6  -8 -19 68.5929 77.5194   4
  -6 -19  -8 242.570 79.3225   4
 -19  -6  -8 169.760 72.3048  10
 -19  -8  -6 223.230 84.1883  10
  -8   6  19 202.101 92.0028   3
   8  -5  19 253.809 67.3606   8
  -5 -19  -8 387.619 77.4813   4
  -5  -8 -19 450.723 86.8114   4
  -8   5  19 248.658 86.2092   3
 -19  -8  -5 325.979 87.9548  10
 -19  -5  -8 461.319 73.0211  10
  -4 -19  -8 727.353 88.9915   4
  -4  -8 -19 837.418 90.7441   4
 -19  -4  -8 760.760 83.1496  10
  -8   4  19 727.410 81.4981   3
  -3  -8 -19 259.601 219.691   5
 -19  -8  -3 520.639 87.6123  10
  -3  -8 -19 570.229 91.4857   4
  -3 -19  -8 515.819 88.4768   4
  19  -3   8 615.752 208.471   7
  -8   3  19 493.232 77.6061   3
  -2 -19  -8 752.628 82.8321   4
  -2  -8 -19 881.781 207.791   5
 -19  -8  -2 855.400 91.8243  10
 -19  -8  -2 834.323 223.236   2
  -2  -8 -19 693.553 94.5798   4
  19  -2   8 675.878 227.698   7
  -8   2  19 794.321 89.4902   3
 -19  -8  -1 818.885 91.2839  10
  -1  -8 -19 775.823 202.609   5
  -1 -19  -8 759.990 92.7740   4
  -1  -8 -19 715.733 94.2103   4
  -8   1  19 699.110 75.9984   3
 -19  -8  -1 773.006 231.661   2
   0  -8 -19 80.0484 86.4688   4
   0  -8  19 86.6424 78.9286  11
 -19  -8   0 13.8980 83.7911  10
 -19  -8   0-62.7010 192.037   2
   0  -8 -19 41.1824 209.944   5
   1  -8 -19 834.968 95.5924   4
   1 -19  -8 803.690 89.7760   4
  -1  -8  19 744.945 80.8699  11
 -19  -8   1 674.229 77.3037  10
  -2  -8  19 1454.36 93.4525  11
  -8  -2  19 1212.29 78.2495  11
   2  -8 -19 1293.63 89.3241   4
 -19  -8   2 1186.55 91.6406  10
 -19  -8   2 1248.42 245.724   2
   2 -19  -8 1412.54 88.9115   4
   2  -8 -19 1165.15 220.698   5
   8  -2 -19 1357.17 203.932   5
 -19  -8   3-129.822 86.9063  12
  -8  -3  19 275.571 81.0837  11
 -19  -3   8 47.9319 87.7728  12
   3  -8 -19 161.824 88.9318   4
   3 -19  -8 227.989 75.8866   4
 -19  -8   3 171.000 80.5925  10
  -3  -8  19 250.469 84.3030  11
 -19  -8   3 111.562 184.939   2
   3  -8 -19-5.98125 244.214   5
 -19  -8   4 1258.37 85.9177  10
   4  -8 -19 1262.46 90.3207   4
   4 -19  -8 1213.89 83.4708   4
  -4  -8  19 1376.68 90.6497  11
  -8  -4  19 1227.75 81.0126  11
  -5  -8  19 93.0471 83.0881  11
 -19  -8   5 3.38040 77.7301  12
 -19  -5   8-108.846 85.8541  12
  -8  -5  19 176.726 72.0860  11
   5 -19  -8 196.657 79.3354   4
   5  -8 -19 158.456 77.6436   4
 -19  -8   6-143.965 90.7276  12
 -19  -6   8-78.4004 82.8311  12
  -6  -8  19 429.459 84.2754  11
  -8  -6  19 351.689 73.1478  11
  -7  -8  19 64.2769 79.2339  11
 -19  -7   8 61.7515 89.5232  12
 -19  -8   7-171.165 86.3064  12
  -8  -7  19 186.908 83.5300  11
   8 -19  -7 70.4700 74.6395   9
   7 -19  -8 120.233 71.2361   9
  -8  -8  19 5.77801 71.1339  11
 -19  -8   8-199.733 87.9398  12
   8 -19  -8 29.0583 74.0763   9
   9  -9  19 11.5607 65.1261   8
 -19  -9  -9-1.63627 75.1258  10
  -9   9  19 83.3483 89.2046   3
   8  -9  19 157.767 69.3768   8
   9  -8  19 114.947 65.9758   8
 -19  -8  -9 55.8846 80.3716  10
 -19  -9  -8 31.9232 80.3694  10
  -9   8  19 59.9174 93.6108   3
   7  -9  19 185.205 68.2692   8
   9  -7  19 227.267 75.8378   8
  -9   7  19 109.670 90.5174   3
 -19  -7  -9 100.783 80.2921  10
 -19  -9  -7 84.3564 81.1260  10
   9  -6  19 149.757 65.1309   8
  -6  -9 -19 86.2979 75.3061   4
  -6 -19  -9 189.123 81.6489   4
  -9   6  19 103.863 95.9974   3
 -19  -9  -6 184.380 73.9197  10
 -19  -6  -9 230.712 80.9085  10
   9  -5  19 208.556 64.9583   8
  -9   5  19 130.640 80.1266   3
  -5  -9 -19 137.638 83.4247   4
  -5 -19  -9 191.719 81.4954   4
 -19  -5  -9 199.333 77.0686  10
  -9   4  19 671.048 94.5674   3
  -4  -9 -19 547.035 82.0778   4
  -4 -19  -9 633.584 90.1593   4
 -19  -9  -4 619.881 77.3226  10
  -9   3  19 1060.39 96.1977   3
  -3 -19  -9 878.893 93.2140   4
  -3  -9 -19 801.305 85.5991   4
 -19  -9  -3 892.370 89.2846  10
  -9   2  19 495.261 83.3452   3
  -2 -19  -9 514.905 88.3179   4
  -2  -9 -19 492.554 93.3945   4
   2  -9  19 331.860 77.2255  11
 -19  -9  -2 428.674 88.0969  10
   1  -9  19 3071.40 110.747  11
  -1  -9 -19 2674.62 112.291   4
 -19  -9  -1 2971.94 112.686  10
  -9   1  19 3028.31 113.651   3
  -1 -19  -9 2886.59 117.191   4
  -9   0  19 189.659 72.4458   3
   0  -9  19 161.962 74.7366  11
 -19  -9   0 74.7267 74.0706  10
   0  -9 -19 90.9773 80.9440   4
 -19  -9   1 2731.14 108.883  10
  -1  -9  19 2736.02 107.717  11
   1 -19  -9 2768.06 114.033   4
   1  -9 -19 2659.30 109.162   4
  -9  -2  19 267.637 69.1486  11
 -19  -9   2 340.221 75.1745  10
  -2  -9  19 339.173 72.2537  11
   2  -9 -19 281.199 90.2877   4
   2 -19  -9 341.561 78.7760   4
  -3  -9  19 651.947 82.8161  11
  -9  -3  19 582.045 78.8411  11
 -19  -9   3 611.890 72.2163  10
   3  -9 -19 543.859 91.2636   4
   3 -19  -9 751.627 87.8108   4
   4  -9 -19 594.660 88.1495   4
   4 -19  -9 743.315 83.6243   4
  -9  -4  19 892.720 79.0575  11
  -4  -9  19 769.952 85.3354  11
 -19  -9   5-42.9644 87.6696  12
 -19  -5   9-193.323 89.9918  12
  -5  -9  19 380.429 83.0793  11
  -9  -5  19 342.986 82.6187  11
   5  -9 -19 314.468 75.1254   4
   5 -19  -9 294.419 71.9157   4
 -19  -9   6 60.7587 86.5007  12
 -19  -6   9-20.0280 77.3153  12
  -9  -6  19 204.840 81.7064  11
 -19  -9   7 19.7799 78.4995  12
  -7  -9  19 238.191 77.9417  11
  -9  -7  19 259.921 71.4359  11
 -19  -7   9-26.3698 82.1946  12
   7 -19  -9 266.718 74.1621   9
 -19  -9   8-187.230 84.4830  12
 -19  -8   9-100.707 86.4123  12
  -8  -9  19 270.248 70.8214  11
   9 -19  -8 264.025 74.0160   9
   8 -19  -9 253.612 71.2019   9
 -19  -9   9-134.577 84.8915  12
  -9  -9  19-8.08487 77.0521  11
   9 -19  -9 27.7830 74.8344   9
  10 -10  19 66.8921 67.8814   8
 -19 -10 -10-2.97785 74.0275  10
 -10  10  19-96.7260 87.3996   3
 -19  -9 -10 165.915 67.8621  10
 -19 -10  -9 249.177 74.6748  10
   9 -10  19 157.322 64.3800   8
  10  -9  19 194.184 64.6840   8
 -19 -10  -8 104.156 75.9117  10
 -19  -8 -10 71.2769 68.3090  10
   8 -10  19 102.228 66.2929   8
  10  -8  19-10.8515 68.4238   8
  10  -7  19 563.582 74.8940   8
 -10   7  19 481.006 92.9181   3
 -19 -10  -7 591.631 83.8238  10
 -19  -7 -10 446.736 71.5604  10
  10  -6  19 410.957 72.0732   8
  -6 -10 -19 488.695 75.1806   4
  -6 -19 -10 410.186 80.2691   4
 -10   6  19 520.551 96.5500   3
 -19  -6 -10 487.921 70.9939  10
  10  -5  19 712.870 72.6218   8
 -10   5  19 564.309 93.5652   3
  -5 -10 -19 657.560 78.9625   4
  -5 -19 -10 733.570 84.3030   4
 -19 -10  -5 785.425 84.7639  10
 -19  -5 -10 787.462 79.3151  10
 -10   4  19 948.083 98.0003   3
  -4 -10 -19 991.809 86.0778   4
  -4 -19 -10 873.233 90.4330   4
 -19 -10  -4 857.038 79.9460  10
 -10   3  19 489.460 89.4125   3
  -3 -10 -19 434.279 84.5506   4
  -3 -19 -10 489.537 89.7468   4
   3 -10  19 524.060 74.4964  11
 -19 -10  -3 401.170 78.6934  10
 -10   2  19 538.053 91.7602   3
  -2 -10 -19 645.056 86.6887   4
  -2 -19 -10 667.489 90.8514   4
   2 -10  19 699.703 77.6449  11
 -19 -10  -2 671.345 76.9565  10
   1 -10  19 1584.26 88.8581  11
  -1 -10 -19 1534.86 97.9694   4
 -19 -10  -1 1512.40 85.8506  10
 -10   1  19 1707.57 96.8989   3
  -1 -19 -10 1606.86 98.4772   4
 -10   0  19 78.9994 84.4750   3
   0 -10 -19 84.3902 88.7686   4
 -19 -10   0 185.878 81.9845  10
   0 -10  19 163.592 74.9958  11
  -1 -10  19 1743.45 85.3266  11
   1 -10 -19 1932.67 96.4355   4
 -19 -10   1 1865.91 89.3521  10
 -10  -1  19 1941.03 93.9300   3
   1 -19 -10 1979.15 102.766   4
  -2 -10  19 704.949 80.2838  11
 -10  -2  19 626.250 70.7914  11
 -19 -10   2 567.245 73.2317  10
   2 -10 -19 630.548 91.9348   4
   2 -19 -10 613.396 82.8183   4
   3 -10 -19 896.960 85.8490   4
   3 -19 -10 870.142 89.2498   4
 -10  -3  19 622.508 75.4723  11
  -3 -10  19 833.229 80.8097  11
   4 -10 -19 980.588 87.9257   4
   4 -19 -10 1148.14 86.9861   4
  -4 -10  19 1166.40 78.7564  11
 -10  -4  19 1268.09 86.9583  11
   5 -10 -19 538.686 78.5128   4
   5 -19 -10 470.667 73.7811   4
  -5 -10  19 481.049 71.9543  11
 -10  -5  19 479.666 79.5907  11
 -10  -6  19 788.680 81.3340  11
  -6 -10  19 805.047 73.5542  11
 -10  -7  19 641.478 81.8348  11
  -7 -10  19 596.657 71.4465  11
   7 -19 -10 454.799 75.0934   9
 -19 -10   8-68.5672 84.7879  12
 -19  -8  10 112.793 82.5287  12
  -8 -10  19 48.0796 70.9853  11
   8 -19 -10 68.4980 69.9959   9
 -10  -9  19 29.5574 70.2213  11
  -9 -10  19 123.186 74.5534  11
  10 -19  -9 95.4896 74.1699   9
   9 -19 -10 101.887 70.2444   9
 -10 -10  19 8.34324 64.3930  11
  10 -19 -10 26.1778 70.8018   9
  11 -11  19 77.1268 61.0308   8
 -11  11  19-59.9679 70.8476   3
  10 -11  19 169.147 58.5948   8
  11 -10  19 97.5984 58.8600   8
 -19 -11 -10 73.2854 64.8726  10
 -10  11  19 76.2461 82.6891   3
 -11  10  19 58.0992 77.5972   3
  11  -9  19 405.705 67.5097   8
 -19  -9 -11 346.422 71.4004  10
 -19 -11  -9 233.405 68.8491  10
  -9  11  19 313.583 86.5880   3
 -11   9  19 405.094 82.9622   3
  11  -8  19 113.784 66.0172   8
 -19  -8 -11 342.412 73.3767  10
 -19 -11  -8 162.758 70.8278  10
  11  -7  19 901.593 67.6105   8
 -19  -7 -11 854.289 75.7146  10
  11  -6  19 64.0983 66.5828   8
  -6 -11 -19 232.866 73.8432   4
  -6 -19 -11-0.54519 74.5564   4
 -11   6  19 61.3419 93.8369   3
 -19  -6 -11 82.8666 66.0710  10
 -19 -11  -6 174.365 76.1514  10
  11  -5  19 299.162 67.3531   8
 -11   5  19 287.282 91.8567   3
  -5 -11 -19 235.387 76.0509   4
  -5 -19 -11 381.564 76.0590   4
 -19 -11  -5 524.925 82.8918  10
 -11   4  19 167.311 88.5763   3
  -4 -11 -19 177.550 84.0728   4
  -4 -19 -11 154.532 85.4708   4
 -19 -11  -4 84.3466 77.1210  10
 -11   3  19 299.072 83.1679   3
  -3 -11 -19 215.083 86.6718   4
  -3 -19 -11 183.769 88.1162   4
 -19 -11  -3 360.124 77.6636  10
 -11   2  19 55.1358 79.7609   3
  -2 -19 -11 237.823 81.2951   4
  -2 -11 -19 131.115 81.7521   4
 -19 -11  -2 207.054 81.0591  10
  -1 -11 -19 1460.07 99.4053   4
 -19 -11  -1 1572.64 87.5842  10
 -11   1  19 1626.90 97.9303   3
  -1 -19 -11 1458.55 99.2003   4
 -11   0  19 177.824 81.4755   3
   0 -11 -19 178.945 91.3061   4
   0 -19 -11 290.314 89.1049   4
   0 -11  19 216.012 66.3262  11
 -19 -11   0 279.820 77.1571  10
  -1 -11  19 1576.08 81.8054  11
   1 -11 -19 1518.20 97.5489   4
 -19 -11   1 1585.80 81.7155  10
 -11  -1  19 1689.08 96.7206   3
   1 -19 -11 1568.72 98.9243   4
   2 -19 -11 126.085 78.0536   4
   2 -11 -19 3.03374 83.4535   4
 -11  -2  19 92.1807 68.7882  11
  -2 -11  19 104.768 73.3974  11
   3 -11 -19 324.823 79.0568   4
   3 -19 -11 163.169 78.2778   4
 -11  -3  19 240.712 71.3101  11
  -3 -11  19 226.565 70.1317  11
   4 -11 -19 42.7664 75.4557   4
   4 -19 -11 97.4339 73.9757   4
 -11  -4  19 73.9016 76.8643  11
  -4 -11  19 150.937 67.3847  11
 -19  -4  11-31.0592 81.8942  12
   5 -11 -19 573.458 80.2950   4
   5 -19 -11 672.960 78.2056   4
 -11  -5  19 612.369 73.4633  11
  -5 -11  19 606.821 76.2990  11
 -11  -6  19 163.596 69.8387  11
 -19  -6  11-34.6752 86.0293  12
  -6 -11  19 125.711 75.2959  11
 -11  -7  19 1548.54 82.8825  11
  -7 -11  19 1551.09 84.7776  11
   7 -19 -11 1321.71 78.9401   9
  -8 -11  19 186.573 70.1084  11
 -11  -8  19 70.2960 74.5266  11
   8 -19 -11 212.189 71.9372   9
  -9 -11  19 410.454 65.3754  11
   9 -19 -11 403.293 67.8642   9
 -19 -10  11-206.639 75.1677  12
 -11 -10  19 271.640 69.5345  11
 -10 -11  19 264.501 66.1411  11
 -19 -11  10-105.757 68.3485  12
  11 -10 -19 155.917 67.1009   9
  10 -11 -19 220.711 73.0149   9
  10 -19 -11 138.084 64.6543   9
 -11 -11  19 5.61193 59.6244  11
 -19 -11  11 19.3028 65.8296  12
  11 -11 -19 41.0278 65.7760   9
  19 -12  12-27.0229 50.6115   8
 -12  12  19 77.5788 60.9290   3
  12 -11  19 136.094 56.4154   8
  19 -12  11 130.926 51.9986   8
 -12  11  19 110.966 63.9083   3
 -11  12  19 131.816 69.5836   3
  12 -10  19 97.4989 52.9369   8
 -10  12  19 68.3087 70.0751   3
 -12  10  19 120.240 76.6129   3
  12  -9  19 671.555 66.4061   8
 -19 -12  -9 511.044 66.6092  10
  -9  12  19 633.368 84.1624   3
 -12   9  19 650.136 83.9829   3
  12  -8  19 90.6101 64.4252   8
 -19  -8 -12 84.8368 67.7568  10
 -12   8  19-60.9798 82.0684   3
  12  -7  19 1740.75 76.4795   8
 -19  -7 -12 1947.27 81.2401  10
 -19 -12  -7 1915.94 91.1053  10
  12  -6  19 454.485 68.8970   8
  -6 -19 -12 689.569 75.1114   4
  -6 -12 -19 574.035 72.3561   4
 -19 -12  -6 574.290 72.0278  10
 -19 -12  -5 2144.52 94.7379  10
 -12   5  19 2263.45 105.255   3
  -5 -19 -12 2257.69 98.7391   4
  -5 -12 -19 2108.97 92.9975   4
 -12   4  19 595.863 92.0135   3
  -4 -12 -19 651.445 84.7109   4
  -4 -19 -12 437.943 79.6193   4
 -19 -12  -4 691.951 80.0501  10
  -3 -12 -19 2218.58 102.434   4
 -19 -12  -3 2014.66 91.9677  10
 -12   3  19 2022.64 100.286   3
  -3 -19 -12 2100.26 96.5942   4
 -12   2  19 285.509 81.8502   3
  -2 -19 -12 274.346 86.6302   4
  -2 -12 -19 195.245 80.1971   4
 -19 -12  -2 268.603 69.6122  10
  -1 -12 -19 1322.23 96.3045   4
 -19 -12  -1 1311.74 84.3475  10
 -12   1  19 1296.44 89.5023   3
  -1 -19 -12 1425.84 89.5334   4
 -12   0  19 86.8371 87.8408   3
 -19 -12   0 207.125 72.8993  10
   0 -19 -12 39.3477 80.0374   4
   0 -12 -19 66.0575 88.6087   4
   1 -12 -19 1488.54 97.0721   4
   1 -19 -12 1552.85 90.0680   4
   2 -19 -12 312.143 84.8790   4
   2 -12 -19 203.066 78.8156   4
  -2 -12  19 297.792 64.6910  11
   3 -12 -19 2476.25 100.320   4
   3 -19 -12 2520.79 103.792   4
 -12  -3  19 2405.66 95.7088  11
  -3 -12  19 2513.76 94.2735  11
   4 -12 -19 656.613 76.8699   4
 -12  -4  19 592.862 76.9017  11
  -4 -12  19 771.253 67.8636  11
   4 -19 -12 865.795 83.0081   4
 -12  -5  19 1969.60 86.3014  11
  -5 -12  19 2124.94 85.7970  11
   5 -12 -19 2184.39 93.3864   4
   5 -19 -12 2079.42 88.2490   4
 -12  -6  19 859.524 72.2031  11
  -6 -12  19 923.638 73.5628  11
 -12  -7  19 1898.12 85.1456  11
  -7 -12  19 2044.80 85.4014  11
   7 -19 -12 1980.36 86.2034   9
 -12  -8  19 167.671 72.6452  11
  -8 -12  19 188.334 66.0696  11
  12  -8 -19 171.288 69.8554   9
   8 -19 -12 97.2220 64.8864   9
  -9 -12  19 421.764 62.5087  11
  12  -9 -19 416.142 68.4120   9
   9 -12 -19 331.874 72.2255   9
   9 -19 -12 311.939 64.1553   9
 -19 -10  12-32.9105 63.1198  12
 -12 -10  19 83.6074 59.6457  11
 -10 -12  19 130.319 57.1175  11
  12 -10 -19 74.5781 61.5887   9
  10 -12 -19 44.4481 68.0446   9
  10 -19 -12 5.73921 60.9440   9
 -12 -11  19 255.471 60.8577  11
 -11 -12  19 254.205 58.5496  11
  12 -11 -19 168.057 61.8053   9
  11 -12 -19 217.822 63.5461   9
 -12 -12  19 5.00286 53.2568  11
  12 -12 -19 30.8883 56.2061   9
  19 -13  13 80.1976 37.1228   8
  19 -12  13 73.3666 44.6470   8
  19 -13  12 92.0544 43.5338   8
 -13  12  19 55.3326 50.0408   3
 -12  13  19 111.311 52.3939   3
  19 -13  11 340.695 45.3274   8
  13 -11  19 403.989 46.6995   8
 -13  11  19 482.021 57.0247   3
 -11  13  19 419.265 61.6157   3
  19 -10  13 156.571 56.5132   8
  13 -10  19 106.493 49.1144   8
  19 -13  10 94.0049 52.4425   8
 -10  13  19 156.882 65.4961   3
 -13  10  19 140.817 68.4877   3
  13  -9  19 1282.60 66.4349   8
  19  -9  13 1527.99 69.8125   8
 -13   9  19 1387.01 83.9030   3
  -9  13  19 1419.89 79.2584   3
  19  -8  13 115.759 55.7694   8
  13  -8  19 199.065 57.8237   8
 -19 -13  -8 148.976 67.7898  10
 -13   8  19 193.554 80.5834   3
  13  -7  19 1898.99 75.9934   8
 -13   7  19 1995.41 96.2495   3
 -19 -13  -7 2089.25 85.7521  10
 -19 -13  -6 335.333 73.0179  10
  -6 -13 -19 343.685 66.3475   4
  -6 -19 -13 382.459 66.8999   4
  13  -6  19 333.688 62.1217   8
  -5 -19 -13 637.287 77.2007   4
 -19 -13  -5 662.497 74.6002  10
  -5 -13 -19 779.395 73.1979   4
 -13   4  19 294.241 91.1027   3
  -4 -13 -19 167.357 78.5218   4
  -4 -19 -13 286.262 74.7110   4
 -19 -13  -4 251.061 73.3135  10
 -13   3  19 27.8705 83.0552   3
  -3 -13 -19 60.1617 81.9235   4
  -3 -19 -13 8.76826 76.5739   4
 -19 -13  -3 88.8234 72.2067  10
 -19 -13  -2 1142.60 73.2802  10
 -13   2  19 1116.51 89.1247   3
  -2 -19 -13 1139.17 85.0401   4
  -2 -13 -19 1032.77 84.4666   4
 -13   1  19 549.288 81.6597   3
 -19 -13  -1 618.788 70.4277  10
  -1 -13 -19 355.873 86.8393   4
  -1 -19 -13 520.863 84.3457   4
   0 -13 -19 1701.07 97.1853   4
   0 -19 -13 1852.98 97.3499   4
   1 -19 -13 542.415 80.5372   4
   1 -13 -19 474.493 86.5008   4
   2 -13 -19 758.491 80.6757   4
   2 -19 -13 843.831 84.2912   4
   3 -19 -13 173.601 73.7849   4
   3 -13 -19 10.0805 73.6804   4
 -19  -3  13-16.1474 78.6136  12
 -13  -3  19 91.5783 67.2244  11
   4 -19 -13 310.202 73.1066   4
   4 -13 -19 157.073 70.0793   4
 -13  -4  19 222.887 66.6593  11
   5 -13 -19 794.245 74.7408   4
 -13  -5  19 725.259 70.6564  11
  -5 -13  19 715.721 64.8093  11
   5 -19 -13 769.611 72.2357   4
  -6 -13  19 568.714 60.5444  11
 -13  -6  19 523.216 67.0570  11
   6 -19 -13 499.280 65.3342   9
 -13  -7  19 2380.67 88.7207  11
  -7 -13  19 2358.66 83.1467  11
   7 -19 -13 2391.99 89.0836   9
 -13  -8  19 364.307 67.3403  11
  -8 -13  19 264.772 57.0409  11
   8 -19 -13 244.559 61.9991   9
  -9 -13  19 1578.11 68.2251  11
   9 -19 -13 1559.04 72.4140   9
   9 -13 -19 1691.81 80.9575   9
 -13 -10  19 42.2667 55.5751  11
 -10 -13  19 40.5097 54.9108  11
 -19 -10  13-115.811 57.7768  12
  10 -19 -13 56.1107 56.3057   9
  13 -10 -19 72.9778 55.9855   9
  10 -13 -19 84.1976 63.7815   9
 -13 -11  19 635.034 58.2967  11
 -11 -13  19 597.196 51.3091  11
  11 -13 -19 618.454 57.5595   9
  13 -11 -19 528.255 56.1118   9
  13 -12 -19 176.665 49.9015   9
  12 -13 -19 100.383 51.8189   9
 -14  11  19 133.245 50.3636   3
 -11  14  19 127.012 47.8508   3
  19 -11  14 166.945 40.8157   8
  14 -11  19 165.801 43.8347   8
  19 -14  11 186.142 41.4195   8
 -10  14  19 152.088 54.2360   3
 -14  10  19 266.245 59.8143   3
  19 -14  10 293.977 43.4148   8
  14 -10  19 255.087 46.2974   8
  19 -10  14 316.944 47.6807   8
  -9  14  19 321.935 62.5013   3
 -14   9  19 423.423 66.8025   3
  19 -14   9 513.909 50.6923   8
  14  -9  19 476.513 51.9264   8
  19  -9  14 423.298 49.5444   8
 -14   8  19 18.7013 72.3627   3
  19  -8  14 88.8155 55.4026   8
  14  -8  19 86.6306 50.8457   8
 -14   7  19 802.793 75.3481   3
  14  -7  19 744.307 59.8642   8
  19  -7  14 697.442 58.7236   8
  19  -6  14 173.351 58.4736   8
  14  -6  19 94.4355 51.8302   8
  -6 -14 -19 99.9565 60.7217   4
  -6 -19 -14 245.897 64.6357   4
 -14   6  19 214.912 82.2299   3
 -19 -14  -6 104.488 61.6928  10
  19  -5  14 560.964 57.7621   8
  -5 -14 -19 396.699 67.8734   4
  -5 -19 -14 495.976 71.9667   4
 -19 -14  -5 514.233 64.1590  10
  -4 -14 -19 123.444 69.4498   4
  -4 -19 -14 117.357 69.8629   4
 -19 -14  -4 19.6166 66.0551  10
 -14   3  19 465.738 85.4452   3
 -19 -14  -3 374.405 64.9645  10
  -3 -19 -14 417.547 73.5976   4
  -3 -14 -19 326.890 76.8005   4
 -19 -14  -2 21.6454 64.9104  10
  -2 -19 -14 50.4831 75.3122   4
  -2 -14 -19 34.6476 73.9488   4
  -1 -19 -14 300.427 78.4347   4
  -1 -14 -19 235.802 81.7998   4
   0 -19 -14-41.4297 81.9198   4
   0 -14 -19-19.9168 82.2898   4
   1 -19 -14 93.8098 74.7507   4
   1 -14 -19-15.0125 79.2668   4
   2 -19 -14 126.219 77.6052   4
   2 -14 -19 44.1171 72.1008   4
   3 -19 -14 318.616 71.0564   4
   3 -14 -19 328.822 71.0784   4
 -14  -3  19 277.444 60.5815  11
   4 -14 -19 25.7365 66.3320   4
   4 -19 -14 74.0428 69.5695   4
 -14  -4  19 46.4857 59.9672  11
   5 -14 -19 644.619 66.2109   4
 -14  -5  19 710.839 69.7934  11
   5 -19 -14 704.763 65.5999   4
 -14  -6  19 217.898 60.1653  11
   6 -19 -14 250.876 59.8797   9
 -14  -7  19 994.427 65.5608  11
   7 -19 -14 959.729 64.9717   9
   7 -14 -19 908.908 70.7109   9
 -14  -8  19 125.923 62.2755  11
  -8 -14  19 71.8484 49.3335  11
   8 -14 -19 64.6067 65.4365   9
   8 -19 -14 139.115 57.8610   9
 -14  -9  19 621.203 58.1227  11
  -9 -14  19 589.776 50.4651  11
   9 -19 -14 637.917 57.9049   9
 -10 -14  19 288.392 46.3639  11
  10 -19 -14 283.793 54.2651   9
  10 -14 -19 258.121 55.1909   9
  14 -11 -19 202.854 45.2401   9
  11 -14 -19 125.821 50.6354   9
  12 -14 -19 177.469 43.8073   9
  19 -10  15 235.280 40.6869   8
  15 -10  19 176.612 38.4896   8
  19 -15  10 229.803 35.4456   8
 -15  10  19 247.747 46.2520   3
 -10  15  19 238.158 48.5473   3
  15  -9  19 1282.74 54.2522   8
  19  -9  15 1327.81 55.3658   8
  19 -15   9 1112.71 48.9703   8
 -15   9  19 1121.14 64.6223   3
  -9  15  19 1178.33 62.9272   3
  19 -15   8 312.101 42.1620   8
  19  -8  15 276.252 45.7391   8
  15  -8  19 371.620 45.5114   8
  -8  15  19 377.176 57.1688   3
 -15   8  19 480.056 64.0019   3
  15  -7  19 988.771 56.2825   8
  19  -7  15 1004.78 55.0635   8
 -15   7  19 1042.80 70.0649   3
  15  -6  19 95.3307 46.8178   8
  19  -6  15 103.794 48.3278   8
 -15   6  19 54.5337 72.7064   3
  -6 -15 -19 96.9585 56.0504   4
  -6 -19 -15 149.750 55.5849   4
 -15   5  19 434.813 74.3118   3
  -5 -19 -15 415.061 61.7881   4
  -5 -15 -19 411.876 63.8793   4
 -19 -15  -4 236.196 58.5858  10
  -4 -15 -19 332.646 64.0754   4
  -4 -19 -15 281.511 69.5828   4
 -19 -15  -3 197.128 57.4407  10
  -3 -19 -15 69.4615 71.5723   4
  -3 -15 -19 141.686 66.4365   4
  -2 -19 -15 857.744 78.2434   4
  -2 -15 -19 896.620 73.6956   4
  -1 -19 -15 160.335 72.4538   4
  -1 -15 -19 181.884 73.6739   4
   0 -19 -15 1465.06 83.1244   4
   0 -15 -19 1475.76 85.3519   4
   1 -19 -15 56.7506 72.7609   4
   1 -15 -19 27.4890 69.9429   4
   2 -19 -15 542.649 72.1821   4
   2 -15 -19 476.697 73.6503   4
 -19  -3  15 4.61024 63.8750  12
   3 -15 -19 147.486 65.6159   4
   3 -19 -15-7.18898 69.9192   4
   4 -15 -19 153.411 63.8909   9
 -15  -4  19 131.482 59.0422  11
   4 -15 -19 132.981 65.0705   4
   4 -19 -15 185.473 62.3914   4
   5 -15 -19 262.294 61.3326   9
 -15  -5  19 283.245 57.0996  11
   5 -15 -19 208.899 57.8625   4
   5 -19 -15 259.053 61.3018   4
 -15  -6  19 216.924 60.5098  11
 -19  -6  15-152.717 59.3543  12
 -15  -6  19-152.000 56.5222  12
   6 -15 -19 208.655 60.6973   9
   6 -19 -15 201.077 53.7102   9
   7 -19 -15 1248.88 62.9757   9
   7 -15 -19 1155.10 67.2506   9
   8 -19 -15 482.110 53.1321   9
   8 -15 -19 568.888 60.1661   9
   9 -19 -15 1174.78 57.3834   9
   9 -15 -19 1184.17 60.9447   9
  10 -19 -15 102.426 46.2339   9
  19  -9  16 36.2157 36.9287   8
  -9  16  19 30.0300 41.3419   3
  19  -8  16 89.6369 37.2278   8
  16  -8  19 11.5391 37.9150   8
  -8  16  19 19.8740 47.1596   3
  19  -7  16 53.5352 39.5135   8
  16  -7  19 84.0102 38.6131   8
  19  -6  16 36.0461 41.1036   8
  -5 -16 -19 135.708 53.5448   4
  -5 -19 -16 162.489 52.7757   4
  -4 -16 -19 350.656 61.3648   4
  -4 -19 -16 367.538 61.5731   4
  -3 -16 -19 363.712 64.3813   4
  -3 -19 -16 416.232 61.9173   4
  -2 -19 -16 260.034 67.7246   4
  -2 -16 -19 387.215 67.8969   4
  -1 -16 -19 987.447 70.7238   4
  -1 -19 -16 1088.76 71.4265   4
   0 -19 -16 48.7395 66.0899   4
   0 -16 -19 150.406 65.0162   4
   1 -16 -19 932.984 68.5507   4
   1 -19 -16 888.619 69.4864   4
   2 -16 -19 176.331 63.8153   4
   2 -19 -16 226.817 66.6772   4
   3 -16 -19 364.649 55.5122   9
   3 -16 -19 279.822 62.5254   4
   3 -19 -16 298.165 63.7990   4
   4 -16 -19 279.845 56.4270   9
   4 -16 -19 292.578 56.3762   4
   4 -19 -16 355.598 57.5104   4
   5 -16 -19 72.0733 53.3471   9
 -16  -5  19-52.2989 52.5210  12
   5 -16 -19 86.0158 51.1666   4
   5 -19 -16 75.3705 52.9736   4
 -19  -6  16-59.9553 59.3317  12
 -16  -6  19 68.9641 51.4696  12
   6 -16 -19 81.5995 55.1216   9
 -19  -7  16-17.9467 53.5711  12
   7 -19 -16 95.6722 46.4966   9
   7 -16 -19 55.8383 52.9495   9
 -19  -8  16 114.916 48.5662  12
   8 -19 -16 14.9747 44.3407   9
   8 -16 -19 43.5415 47.7292   9
   9 -16 -19 132.526 45.4898   9
  -7  17  19 125.302 42.9482   3
  -5 -17 -19 87.0109 45.0823   4
  -5 -19 -17 67.9814 46.5853   4
  -4 -17 -19 501.722 53.6217   4
  -4 -19 -17 422.337 51.0740   4
  -3 -17 -19 75.6413 52.7047   4
  -3 -19 -17 168.636 55.7540   4
  -2 -19 -17 997.388 64.8265   4
  -2 -17 -19 924.902 61.0069   4
  -1 -17 -19 148.173 59.2947   4
  -1 -19 -17 139.803 56.5945   4
   0 -19 -17 1375.99 66.6786   4
   0 -17 -19 1225.30 69.7121   4
   1 -17 -19 238.189 56.4822   4
   1 -19 -17 157.440 55.3924   4
   2 -19 -17 884.405 61.4424   4
   2 -17 -19 984.150 62.6722   4
   3 -17 -19 93.7530 53.3787   4
   3 -19 -17 83.4102 52.4005   4
   4 -17 -19 389.660 48.5096   4
   4 -19 -17 349.997 48.6522   4
 -17  -5  19-16.3205 49.1689  12
 -19  -5  17-7.56622 52.5556  12
   5 -17 -19 60.5842 44.7249   9
   5 -17 -19 83.6065 43.3621   4
   5 -19 -17 104.329 42.9343   4
   6 -17 -19 60.5867 44.5008   9
 -17  -6  19 95.5758 43.3116  12
 -19  -7  17-40.1817 42.6294  12
  -3 -19 -18 1049.52 52.8123   4
  -3 -18 -19 977.296 51.4186   4
  -2 -18 -19 131.587 46.2122   4
  -2 -19 -18 266.599 48.3456   4
  -1 -19 -18 1794.55 65.6651   4
  -1 -18 -19 1729.93 66.7242   4
   0 -18 -19 115.621 50.9499   4
   0 -19 -18 104.956 50.3845   4
   1 -19 -18 1741.38 64.3013   4
   1 -18 -19 1743.55 65.3837   4
   2 -18 -19 126.999 47.9035   4
   2 -19 -18 227.123 48.7745   4
   3 -19 -18 1099.52 52.9135   4
   3 -18 -19 999.874 52.9446   4
 -19  -4  18 19.4948 45.5863  12
   0   0 -20 10.5511 210.674   5
 -20   0   0 113.642 246.519   2
 -20  -1  -1 10248.2 398.434   2
  -1 -20  -1 9709.25 247.253   4
  -1  -1 -20 10247.9 364.709   5
 -20  -1  -1 10190.7 249.585  10
 -20  -1   0 381.727 244.807   2
 -20   0  -1 414.503 246.598   2
 -20   1   0 827.852 257.555   2
   0  -1 -20 287.149 209.115   5
  -1   0 -20 148.538 205.969   5
 -20   1  -1 9333.11 370.785   2
   1 -20  -1 8988.49 227.699   4
   1  -1 -20 9226.84 360.483   5
 -20  -2  -2 3024.73 251.055   2
  -2 -20  -2 2871.02 114.786   4
  -2  -2 -20 2569.62 233.355   5
 -20  -2  -2 2850.83 107.992  10
 -20  -2  -1 3480.97 279.683   2
 -20  -1  -2 3384.97 247.377   2
 -20   1   2 3268.03 246.926   2
  -2 -20  -1 2981.30 118.484   4
  -1 -20  -2 3257.56 119.064   4
  -1  -2 -20 2995.66 244.955   5
  -2  -1 -20 3245.85 235.948   5
 -20  -2  -1 3217.46 115.003  10
 -20  -1  -2 3026.62 107.411  10
  -2   0 -20 599.568 206.996   5
   0  -2 -20 532.430 223.158   5
 -20   0  -2 580.259 210.491   2
 -20   0   2 368.118 227.576   2
 -20  -2   0 556.934 246.693   2
 -20  -2   0 539.766 74.5088  10
 -20   0  -2 448.066 82.0004  10
 -20   1  -2 3053.79 105.900  10
  -2  -1  20 2928.79 113.611  11
   2 -20  -1 3279.93 118.910   4
   2  -1 -20 2989.47 224.277   5
   1  -2 -20 2746.14 254.380   5
   1 -20  -2 3374.88 119.644   4
 -20  -1   2 3679.96 276.801   2
 -20   1  -2 3923.50 287.387   2
  -2  -2  20 2843.44 105.748  11
 -20  -2   2 3309.80 267.936   2
   2  -2 -20 2695.46 240.182   5
   2 -20  -2 3080.90 112.124   4
  -3 -20  -3 489.090 78.4963   4
 -20  -3  -3 425.774 86.8297  10
  -3 -20  -2 393.236 89.4602   4
  -2 -20  -3 581.611 85.9194   4
 -20  -3  -2 573.645 237.098   2
 -20  -2  -3 455.293 186.510   2
 -20  -3  -2 492.135 82.3133  10
 -20  -2  -3 638.155 85.0012  10
  -3  -2 -20 771.315 208.982   5
  -2  -3 -20 691.456 239.923   5
 -20   1   3 1808.18 257.330   2
 -20  -3  -1 1588.13 238.491   2
 -20  -1  -3 1658.55 216.642   2
 -20  -1  -3 1818.58 86.8305  10
 -20  -3  -1 1651.22 98.1123  10
  -3  -1 -20 2030.15 209.387   5
  -1 -20  -3 1819.29 96.2653   4
  -1  -3 -20 2142.53 254.953   5
 -20   0  -3 258.203 190.152   2
 -20   0   3 429.616 240.822   2
 -20  -3   0 485.138 237.637   2
 -20  -3   0 354.503 73.5108  10
 -20   0  -3 358.253 80.4432  10
  -3   0  20 282.048 80.1535  11
  -3   0 -20 373.780 207.005   5
   0  -3 -20 696.150 222.255   5
  -3  -1  20 1604.30 91.8165  11
   3  -1 -20 1559.51 220.238   5
   1  -3 -20 1324.35 210.186   5
   1 -20  -3 1410.30 88.8383   4
 -20  -1   3 1296.19 246.283   2
 -20   1  -3 1171.80 224.362   2
   3 -20  -2 441.886 85.8364   4
   2 -20  -3 360.461 85.6417   4
   3  -2 -20 735.986 207.941   5
   2  -3 -20 226.173 228.225   5
  -2  -3  20 345.224 83.8758  11
  -3  -2  20 451.141 73.2993  11
 -20  -3   2 481.360 194.127   2
 -20  -2   3 240.305 236.516   2
   3 -20  -3 481.692 75.0374   4
   3  -3 -20 385.429 220.868   5
 -20  -3   3 724.868 235.247   2
  -3  -3  20 438.574 77.9030  11
  -4  -4 -20 1990.92 259.947   5
  -4 -20  -4 2535.18 107.552   4
 -20  -4  -4 2393.50 104.216  10
 -20  -4  -4 2204.88 247.671   2
  -3 -20  -4 172.198 88.2709   4
  -4 -20  -3 218.837 76.4624   4
  -3  -4 -20 75.6488 215.097   5
  -4  -3 -20 11.4104 224.254   5
 -20  -4  -3 356.002 227.662   2
 -20  -3  -4 87.4934 212.069   2
 -20  -4  -3 139.469 87.0500  10
 -20  -3  -4 338.607 82.3818  10
  -4 -20  -2 2649.62 110.214   4
  -2 -20  -4 2457.92 102.811   4
  -4  -2 -20 2784.73 251.636   5
  -2  -4 -20 2618.72 241.431   5
 -20  -2  -4 2315.32 219.417   2
 -20  -4  -2 2665.15 266.440   2
 -20  -4  -2 2545.79 100.302  10
 -20  -2  -4 2631.46 106.573  10
 -20  -4  -1 3968.92 252.221   2
 -20  -1  -4 3166.57 231.382   2
 -20   1   4 3610.35 279.822   2
  -1  -4 -20 3412.08 267.112   5
  -1 -20  -4 3565.48 125.152   4
  -4  -1 -20 3190.03 256.415   5
 -20  -4  -1 3380.59 123.623  10
 -20  -1  -4 3294.91 111.350  10
  -4   0 -20-134.093 211.720   5
   0  -4 -20 103.501 227.333   5
 -20   0  -4 194.895 189.141   2
 -20   0   4 213.337 232.201   2
 -20  -4   0 183.533 210.275   2
 -20   0  -4 164.810 77.1268  10
  -4   0  20 124.420 67.9049  11
  -4  -1  20 3260.65 112.432  11
 -20  -1   4 3765.28 267.012   2
 -20   1  -4 3402.50 265.719   2
   1  -4 -20 3341.76 262.506   5
   1 -20  -4 3780.72 125.557   4
 -20  -4   1 3336.01 124.218  10
 -20   2  -4 2288.17 251.754   2
 -20  -2   4 2456.69 254.179   2
 -20  -4   2 2344.99 105.364  10
  -4  -2  20 2431.24 104.964  11
  -2  -4  20 2378.57 102.159  11
 -20  -4   2 3027.39 259.038   2
   4  -2 -20 2431.50 247.519   5
   2  -4 -20 2698.95 254.789   5
   4 -20  -2 2371.46 104.469   4
   2 -20  -4 2605.92 100.501   4
   3 -20  -4 253.030 79.4350   4
   4 -20  -3 140.435 72.8589   4
 -20  -4   3 56.2921 201.171   2
 -20  -3   4 339.953 230.681   2
  -4  -3  20 157.759 73.1850  11
  -3  -4  20 117.784 75.7967  11
 -20  -4   3 147.071 79.1979  10
   4  -3 -20-79.8875 193.193   5
   3  -4 -20 109.483 189.953   5
  -4  -4  20 1989.40 91.3916  11
 -20  -4   4 2064.95 232.197   2
   4  -4 -20 2285.15 233.238   5
   4 -20  -4 2026.80 93.0341   4
  -5 -20  -5 467.691 76.7205   4
 -20  -5  -5 421.360 81.6446  10
  -4 -20  -5 841.153 91.8635   4
  -5 -20  -4 830.146 79.8621   4
 -20  -4  -5 788.345 82.9032  10
 -20  -5  -4 859.589 91.3889  10
  -5 -20  -3 152.141 80.7170   4
  -3 -20  -5 87.1392 89.3882   4
  -3  -5 -20 117.188 210.630   5
  -5  -3 -20 457.100 197.927   5
 -20  -5  -3 215.834 204.547   2
 -20  -3  -5 268.133 82.5696  10
 -20  -5  -3 49.5433 83.9824  10
  -2 -20  -5 675.012 85.2584   4
  -5 -20  -2 702.082 85.2722   4
  -2  -5 -20 806.238 209.570   5
 -20   2   5 709.429 213.511   2
 -20  -5  -2 697.043 191.020   2
 -20  -2  -5 361.549 209.712   2
 -20  -5  -2 580.955 87.4578  10
 -20  -2  -5 740.099 82.8426  10
  -1 -20  -5 200.997 90.7234   4
  -1  -5 -20 291.923 218.963   5
 -20  -1  -5 126.099 76.6659  10
 -20   1   5 317.993 205.729   2
 -20  -5  -1 612.926 241.787   2
 -20  -1  -5 208.665 212.805   2
   0  -5 -20 511.257 234.765   5
 -20   0   5-72.2548 222.750   2
 -20  -5   0 85.4847 218.641   2
 -20   0  -5 231.014 212.714   2
 -20  -5   0 347.854 75.3533  10
   1 -20  -5 206.585 89.6050   4
   5  -1 -20 514.983 210.641   5
   1  -5 -20 494.216 223.460   5
 -20  -5   1 215.549 74.9033  10
  -5  -1  20 190.524 79.1173  11
 -20   1  -5 103.326 202.746   2
 -20  -1   5-60.6941 223.441   2
   5  -2 -20 451.319 216.955   5
   2  -5 -20 866.916 234.033   5
   2 -20  -5 683.831 80.2865   4
 -20   2  -5 510.235 181.986   2
 -20  -5   2 588.526 236.161   2
 -20  -2   5 475.457 222.144   2
  -2  -5  20 573.154 81.0657  11
 -20  -5   2 574.525 88.7803  10
  -5  -2  20 664.556 72.7040  11
 -20  -5   3 109.859 72.8793  10
  -3  -5  20 157.984 75.7323  11
  -5  -3  20 147.465 83.8354  11
   5 -20  -3 87.6686 78.1341   4
   3 -20  -5 166.263 82.7484   4
 -20  -5   3 83.8979 211.610   2
 -20  -3   5 276.824 206.018   2
   5  -3 -20 17.0756 203.734   5
   3  -5 -20-23.2996 193.484   5
   5 -20  -4 884.345 79.1348   4
  -5  -4  20 1021.22 87.6374  11
   4 -20  -5 855.755 82.8633   4
  -4  -5  20 845.270 85.0744  11
 -20  -5   4 840.402 83.4581  10
   5 -20  -5 311.893 72.9189   4
  -5  -5  20 295.954 85.0197  11
 -20  -5   5 293.647 77.2652  10
   5  -5 -20 236.954 84.7560   4
  -6  -6 -20 550.435 77.3980   4
  -6 -20  -6 507.292 81.1358   4
 -20  -6  -6 483.795 83.9317  10
  -5 -20  -6 716.581 80.3416   4
  -5  -6 -20 869.330 86.1756   4
  -6 -20  -5 865.045 84.9023   4
  -6  -5 -20 768.102 86.1789   4
  -6   5  20 842.054 87.3346   3
 -20  -5  -6 788.357 83.7053  10
 -20  -6  -5 804.428 90.1292  10
  -4  -6 -20 1362.16 89.6593   4
  -6 -20  -4 1262.59 89.1038   4
  -4 -20  -6 1360.04 94.3554   4
 -20  -4  -6 1379.80 90.2294  10
 -20  -6  -4 1359.76 93.2983  10
  -6   4  20 1406.88 90.4970   3
  -6 -20  -3 446.428 75.9686   4
  -3 -20  -6 448.565 89.1214   4
  -3  -6 -20 565.715 84.5623   4
 -20  -6  -3 404.788 80.6794  10
 -20  -3  -6 470.302 81.6124  10
  -2  -6 -20 1856.75 103.536   4
  -2 -20  -6 1746.59 94.4140   4
 -20  -2  -6 1761.63 85.4627  10
 -20  -6  -1 957.868 92.5308  10
  -1 -20  -6 1003.92 95.2243   4
 -20  -6   0 238.643 229.478   2
 -20  -6   0 106.262 85.2135  10
   0  -6  20 178.966 85.6294  11
  -6  -1  20 935.062 80.9377  11
  -1  -6  20 858.353 79.1440  11
   1 -20  -6 915.610 92.5254   4
 -20  -6   1 926.078 79.8702  10
   2  -6 -20 2027.78 108.398   4
 -20  -6   2 2004.25 101.384  10
  -6  -2  20 2244.24 97.7002  11
   2 -20  -6 2013.45 95.5845   4
   3 -20  -6 332.896 79.5378   4
 -20  -6   3 385.282 74.3378  10
   3  -6 -20 427.082 90.4942   4
  -6  -3  20 437.414 73.1858  11
   4  -6 -20 1529.50 96.0394   4
 -20  -6   4 1302.25 83.1978  10
  -6  -4  20 1382.07 89.3814  11
   4 -20  -6 1326.96 83.5032   4
   5 -20  -6 718.958 79.0868   4
   5  -6 -20 737.517 78.8052   4
  -6  -5  20 749.797 82.7431  11
  -5  -6  20 739.772 82.0309  11
 -20  -6   5 744.711 74.5464  10
  -6  -6  20 556.792 75.6993  11
 -20  -6   6 593.914 79.2697  10
  -7   7  20 614.146 83.2019   3
 -20  -7  -7 637.717 84.9874  10
  -6  -7 -20 1818.97 94.6213   4
 -20  -7  -6 1694.58 97.0419  10
 -20  -6  -7 1929.86 95.9739  10
  -7   6  20 1744.92 94.1017   3
  -6 -20  -7 1646.93 88.4166   4
  -7   5  20 486.295 86.7205   3
  -5  -7 -20 370.565 81.9399   4
  -5 -20  -7 333.104 84.1947   4
 -20  -5  -7 381.388 83.9105  10
 -20  -7  -5 290.993 81.7251  10
  -4  -7 -20 3317.80 121.737   4
 -20  -4  -7 3105.03 112.178  10
 -20  -7  -4 3035.25 113.474  10
  -7   4  20 3270.09 118.435   3
  -4 -20  -7 3145.19 113.589   4
  -7   3  20 111.671 81.0392   3
  -3 -20  -7 85.0363 80.0386   4
  -3  -7 -20 193.806 92.0144   4
 -20  -3  -7 87.3825 69.9904  10
  -2 -20  -7 1981.61 102.318   4
  -2  -7 -20 1835.48 100.795   4
 -20  -7  -2 1855.30 102.257  10
  -1 -20  -7 1353.35 89.5377   4
  -1  -7 -20 1385.63 101.694   4
 -20  -7  -1 1398.42 96.6616  10
   0  -7 -20 413.905 93.8614   4
   0  -7  20 450.696 85.2655  11
 -20  -7   0 335.302 87.1197  10
   1  -7 -20 1232.57 99.6446   4
 -20  -7   1 1383.21 83.2014  10
  -7  -1  20 1230.86 76.9165  11
  -1  -7  20 1343.61 83.4599  11
   1 -20  -7 1226.04 88.1600   4
   2  -7 -20 1807.14 96.5342   4
 -20  -7   2 1870.94 99.5606  10
  -7  -2  20 1807.05 88.5946  11
  -2  -7  20 1951.36 99.3491  11
   2 -20  -7 1965.72 101.843   4
 -20  -3   7-227.077 83.5032  12
  -7  -3  20 108.674 81.1201  11
   3  -7 -20 31.8640 80.8097   4
   3 -20  -7 97.3029 79.6993   4
  -3  -7  20 71.7511 84.4623  11
 -20  -7   3 118.398 76.5433  10
   4  -7 -20 2937.45 109.948   4
 -20  -7   4 2727.03 107.863  10
  -7  -4  20 2970.69 109.623  11
  -4  -7  20 3200.44 113.321  11
   4 -20  -7 3161.79 110.919   4
   5 -20  -7 428.023 78.0297   4
   5  -7 -20 422.067 84.4975   4
  -7  -5  20 485.231 76.4410  11
 -20  -7   5 419.075 80.4149  10
  -7  -6  20 1853.33 95.6220  11
 -20  -7   6 1659.81 83.5308  10
 -20  -6   7 1820.50 83.7852  10
  -8   8  20 60.8298 89.3633   3
 -20  -8  -8 80.2395 69.2279  10
  -8   7  20 644.346 92.8904   3
 -20  -7  -8 610.350 80.4632  10
 -20  -8  -7 553.142 75.5396  10
  -8   6  20 89.6455 86.8995   3
  -6  -8 -20 34.2125 74.1034   4
  -6 -20  -8 98.4104 77.9145   4
 -20  -8  -6 59.3340 73.6011  10
 -20  -6  -8 83.8189 77.5214  10
  -5  -8 -20 1049.09 88.7207   4
 -20  -5  -8 956.605 76.8805  10
 -20  -8  -5 1042.62 87.8095  10
  -8   5  20 926.104 87.5923   3
  -5 -20  -8 891.310 81.4920   4
  -8   4  20 571.433 79.3089   3
  -4  -8 -20 635.931 82.6008   4
  -4 -20  -8 519.787 89.4616   4
 -20  -4  -8 611.923 76.0502  10
  -3  -8 -20 1149.88 90.0536   4
 -20  -8  -3 1285.73 93.5585  10
  -8   3  20 1261.02 84.7819   3
  -3 -20  -8 1416.94 96.7567   4
   2  -8  20 1093.77 78.8138  11
  -2  -8 -20 1116.64 97.9165   4
 -20  -8  -2 1047.07 91.2677  10
  -8   2  20 970.140 86.6857   3
  -2 -20  -8 1005.21 87.2118   4
  -1  -8 -20 356.283 84.2031   4
  -1 -20  -8 509.726 91.2193   4
   1  -8  20 422.989 80.8025  11
 -20  -8  -1 495.356 88.1652  10
   0  -8 -20 265.565 83.8068   4
   0  -8  20 73.6554 83.0387  11
 -20  -8   0 361.651 84.6481  10
   1  -8 -20 234.556 85.8349   4
   1 -20  -8 497.376 90.4429   4
 -20  -8   1 351.803 75.0597  10
  -1  -8  20 266.080 73.0815  11
   2  -8 -20 1244.51 97.2554   4
 -20  -8   2 1225.21 87.1033  10
  -2  -8  20 1277.47 90.2429  11
  -8  -2  20 1279.50 77.8529  11
   2 -20  -8 1282.88 87.7193   4
   3  -8 -20 1196.42 95.7763   4
 -20  -8   3 1183.41 87.2267  10
  -3  -8  20 1215.99 89.6386  11
  -8  -3  20 1138.29 84.4253  11
   3 -20  -8 1230.81 88.7042   4
 -20  -8   4 669.282 77.0613  10
  -8  -4  20 805.448 77.4080  11
  -4  -8  20 737.768 82.7737  11
   4 -20  -8 710.949 79.5001   4
   4  -8 -20 879.370 88.7512   4
  -5  -8  20 902.001 81.6921  11
  -8  -5  20 865.029 82.7156  11
   5 -20  -8 832.501 78.5199   4
   5  -8 -20 818.416 77.2134   4
  -6  -8  20 114.683 78.4899  11
 -20  -6   8 20.9020 74.6631  12
 -20  -8   6-117.820 85.9532  12
  -8  -6  20 74.0316 75.1776  11
  -8  -7  20 468.098 74.5055  11
  -7  -8  20 464.041 81.1509  11
 -20  -8   8 21.3928 83.3801  12
 -20  -9  -9 691.619 76.7474  10
  -9   9  20 799.584 85.3597   3
 -20  -9  -8 227.477 74.8485  10
 -20  -8  -9 213.514 67.7379  10
  -9   8  20 177.779 88.4291   3
  -8   9  20 155.034 80.1999   3
   9  -7  20 191.709 69.2944   8
  -9   7  20 289.016 85.9080   3
 -20  -7  -9 358.146 69.7099  10
 -20  -9  -7 141.349 78.4034  10
 -20  -9  -6 1302.93 89.6731  10
 -20  -6  -9 1425.45 80.4200  10
  -6  -9 -20 1287.08 82.7883   4
   9  -6  20 1354.24 79.8521   8
  -9   6  20 1433.19 98.1006   3
  -6 -20  -9 1496.74 87.0587   4
   9  -5  20 102.607 68.6693   8
  -9   5  20 74.4627 83.2705   3
  -5  -9 -20 52.0212 75.9881   4
  -5 -20  -9 69.9686 78.1198   4
 -20  -5  -9 113.158 75.2576  10
  -4  -9 -20 2982.91 113.142   4
 -20  -9  -4 2910.03 112.148  10
  -9   4  20 3133.83 119.347   3
  -4 -20  -9 3006.26 114.954   4
  -9   3  20 543.844 89.1158   3
  -3 -20  -9 569.845 88.7648   4
  -3  -9 -20 484.471 86.2837   4
 -20  -9  -3 443.489 85.6616  10
   3  -9  20 485.330 69.8058  11
   2  -9  20 2245.81 92.8728  11
  -2  -9 -20 2077.80 101.775   4
 -20  -9  -2 2277.43 103.285  10
  -9   2  20 2202.09 103.442   3
  -2 -20  -9 2355.54 105.799   4
   1  -9  20 2974.66 103.452  11
  -1  -9 -20 2857.16 118.218   4
 -20  -9  -1 3011.29 113.814  10
  -9   1  20 3152.87 107.032   3
  -1 -20  -9 3019.17 115.994   4
   0  -9 -20 168.390 90.7088   4
   0  -9  20 190.902 71.3342  11
 -20  -9   0 78.1139 73.3011  10
   1  -9 -20 2660.88 111.376   4
 -20  -9   1 2867.59 109.656  10
  -1  -9  20 2925.10 107.925  11
   1 -20  -9 2666.64 113.648   4
   2  -9 -20 1489.78 97.5698   4
 -20  -9   2 1470.91 88.3347  10
  -2  -9  20 1475.04 82.0716  11
  -9  -2  20 1514.99 79.0065  11
   2 -20  -9 1499.79 92.1272   4
  -3  -9  20 334.784 77.8192  11
  -9  -3  20 215.758 68.7442  11
   3  -9 -20 273.086 79.5128   4
   3 -20  -9 127.286 84.3828   4
 -20  -9   3 264.311 76.0184  10
   4  -9 -20 2454.29 103.768   4
   4 -20  -9 2646.83 103.848   4
  -4  -9  20 2639.99 103.904  11
  -9  -4  20 2490.91 102.563  11
 -20  -9   5-31.9501 86.1590  12
  -5  -9  20 81.4471 78.5166  11
  -9  -5  20 181.751 77.3805  11
   5 -20  -9 157.760 70.6134   4
   5  -9 -20 14.4068 76.9584   4
  -9  -6  20 1270.08 84.9746  11
  -6  -9  20 1183.94 84.7377  11
  -9  -7  20 368.331 76.8716  11
 -20  -7   9 113.163 73.5464  12
  -7  -9  20 301.734 77.6526  11
 -20  -9   8 81.0146 77.1987  12
  -8  -9  20 111.188 71.6781  11
  -9  -9  20 647.492 67.1162  11
 -20  -9   9-218.203 78.3266  12
 -20 -10 -10 153.412 63.8538  10
 -20  -9 -10 862.443 68.9166  10
 -20 -10  -9 761.722 69.1617  10
  -9  10  20 766.303 87.6911   3
 -10   9  20 713.618 80.9116   3
  10  -8  20 8.71767 65.8828   8
 -20  -8 -10-10.9303 69.8720  10
 -20 -10  -8 77.6848 66.9304  10
  -8  10  20 25.6600 85.7972   3
 -10   8  20 9.51613 86.0891   3
  10  -7  20 262.317 60.6966   8
 -10   7  20 384.051 82.2830   3
 -20  -7 -10 281.390 71.9874  10
 -20 -10  -7 367.130 70.7699  10
  10  -6  20 165.055 63.5176   8
 -10   6  20 114.634 84.8009   3
  -6 -10 -20 135.291 73.2523   4
  -6 -20 -10 157.955 73.5615   4
 -20  -6 -10 137.446 65.1180  10
 -10   5  20-79.2607 89.2741   3
  -5 -10 -20 50.6121 74.1203   4
  -5 -20 -10-23.6874 73.6499   4
 -20 -10  -5-76.6314 71.7726  10
 -20  -5 -10-108.455 69.7548  10
 -10   4  20 47.4203 79.8116   3
  -4 -10 -20 2.30341 84.2533   4
  -4 -20 -10 170.986 84.3940   4
 -20 -10  -4 24.2822 79.6651  10
   4 -10  20 46.5601 68.1375  11
   3 -10  20 1129.43 73.1233  11
  -3 -10 -20 1292.84 94.5577   4
 -20 -10  -3 1133.63 88.1349  10
 -10   3  20 1081.64 86.4043   3
  -3 -20 -10 1194.72 92.8867   4
 -10   2  20 5.66836 75.1429   3
  -2 -20 -10-1.18236 84.1756   4
  -2 -10 -20 38.6226 82.4689   4
   2 -10  20 69.0080 65.8655  11
 -20 -10  -2-12.5803 79.6323  10
   1 -10  20 2299.53 91.8550  11
  -1 -10 -20 2465.00 110.217   4
 -20 -10  -1 2333.41 96.5593  10
 -10   1  20 2570.54 105.110   3
  -1 -20 -10 2411.73 106.936   4
 -10   0  20 333.452 72.9236   3
 -20 -10   0 461.907 80.5996  10
   0 -10  20 314.523 68.5852  11
   0 -10 -20 356.233 90.5944   4
 -20 -10   1 2404.59 95.3775  10
  -1 -10  20 2394.70 97.0371  11
   1 -20 -10 2534.92 107.804   4
   1 -10 -20 2509.44 110.282   4
 -10  -2  20 80.1179 65.2193  11
 -20  -2  10 7.32151 76.6946  12
  -2 -10  20 117.128 72.8649  11
 -20 -10   2 133.588 69.1711  10
   2 -10 -20 243.276 80.7837   4
   2 -20 -10 134.216 77.8386   4
   3 -10 -20 1408.66 87.3353   4
   3 -20 -10 1396.13 90.4900   4
  -3 -10  20 1347.59 83.9108  11
 -10  -3  20 1281.64 76.4866  11
   4 -10 -20 132.773 75.6230   4
   4 -20 -10 55.4056 76.7869   4
 -10  -4  20 74.7988 74.7869  11
  -4 -10  20 220.743 68.6355  11
   5 -10 -20 80.3246 76.1653   4
   5 -20 -10 92.8354 70.3937   4
  -5 -10  20 20.2696 69.7587  11
 -20  -5  10-51.1854 82.3821  12
 -10  -5  20-21.5793 67.9796  11
 -10  -6  20 239.925 68.8275  11
  -6 -10  20 95.3953 71.3143  11
 -10  -7  20 126.111 70.3514  11
  -7 -10  20 31.7159 68.0215  11
 -10  -8  20 19.6123 69.5088  11
  -8 -10  20 13.4108 63.6278  11
 -20 -10   8-94.3732 76.5514  12
 -20  -8  10-10.1690 78.6032  12
   8 -20 -10 31.9759 65.8594   9
 -10  -9  20 441.470 71.1484  11
  -9 -10  20 448.219 66.2973  11
 -10 -10  20 43.6916 63.7150  11
 -11  11  20 153.339 64.8777   3
 -11  10  20 184.302 67.9461   3
 -10  11  20 167.223 68.1619   3
 -20 -11  -9 260.780 66.4530  10
 -20  -9 -11 179.622 65.1126  10
  11  -8  20 380.676 60.8426   8
 -20  -8 -11 499.364 66.5648  10
 -20 -11  -8 351.925 69.7258  10
  -8  11  20 383.457 84.1743   3
 -11   8  20 376.558 84.4525   3
  11  -7  20 99.5502 61.1969   8
 -11   7  20 91.1968 81.8945   3
 -20  -7 -11 56.6537 66.4098  10
  11  -6  20 320.037 63.9098   8
 -11   6  20 526.926 83.8293   3
  -6 -11 -20 228.573 71.6014   4
  -6 -20 -11 336.350 68.6333   4
 -20  -6 -11 398.514 62.6678  10
 -20 -11  -6 341.424 76.5558  10
 -11   5  20 124.288 87.9487   3
  -5 -11 -20 48.7562 74.0378   4
  -5 -20 -11-80.4671 73.5081   4
 -20 -11  -5 98.6297 68.8209  10
 -11   4  20 461.693 81.6467   3
  -4 -11 -20 436.549 81.4909   4
  -4 -20 -11 467.690 76.9223   4
 -20 -11  -4 554.289 71.5200  10
 -11   3  20 303.661 85.0919   3
  -3 -11 -20 248.102 82.5743   4
  -3 -20 -11 370.909 80.6322   4
 -20 -11  -3 284.816 70.7555  10
  -2 -11 -20 820.016 88.5451   4
 -20 -11  -2 811.553 75.5217  10
 -11   2  20 776.794 86.3250   3
  -2 -20 -11 864.229 83.0171   4
   1 -11  20 1760.50 79.3005  11
  -1 -11 -20 1688.74 97.5137   4
 -20 -11  -1 1887.83 90.9217  10
 -11   1  20 1788.13 90.4948   3
  -1 -20 -11 2033.90 98.9445   4
   0 -11 -20 574.362 81.3349   4
 -20 -11   0 541.133 72.6532  10
 -11   0  20 445.259 83.3887   3
   0 -11  20 693.825 66.8692  11
 -20 -11   1 1390.92 79.3525  10
   1 -11 -20 1595.90 95.4189   4
   1 -20 -11 1669.94 93.5532   4
  -1 -11  20 1563.62 81.9831  11
   2 -11 -20 820.062 82.1819   4
   2 -20 -11 844.745 82.0375   4
 -11  -2  20 784.847 67.8371  11
  -2 -11  20 834.565 72.5605  11
   3 -11 -20 274.558 81.7408   4
   3 -20 -11 164.734 75.0298   4
 -11  -3  20 216.287 64.9220  11
  -3 -11  20 260.320 67.3841  11
   4 -11 -20 580.442 75.6195   4
   4 -20 -11 588.803 73.9952   4
 -11  -4  20 649.600 73.1745  11
  -4 -11  20 594.933 67.8756  11
   5 -11 -20 104.557 71.6847   4
   5 -20 -11 124.825 71.6381   4
 -20  -5  11-98.8813 75.7585  12
  -5 -11  20 64.0542 70.3727  11
 -11  -5  20 107.281 64.7340  11
  -6 -11  20 240.738 69.6334  11
 -11  -6  20 335.163 68.3965  11
  -7 -11  20 0.45764 67.1730  11
 -20  -7  11-45.5175 78.3839  12
 -11  -7  20 92.9029 64.9760  11
  -8 -11  20 193.315 65.7385  11
 -11  -8  20 391.684 70.2733  11
   8 -20 -11 235.329 61.0809   9
  -9 -11  20 14.7846 58.1548  11
  11  -9 -20-19.8706 65.9540   9
 -11 -10  20 284.881 60.5036  11
 -10 -11  20 229.149 57.2215  11
  11 -10 -20 239.587 60.6852   9
  10 -11 -20 213.818 61.6899   9
 -11 -11  20 250.266 53.0619  11
  11 -11 -20 251.748 58.1455   9
 -12  12  20 105.320 47.3227   3
  20 -12  12 142.264 37.7355   8
 -12  11  20 206.544 54.6139   3
 -11  12  20 215.022 55.3535   3
  20 -12  11 245.330 44.0723   8
 -12  10  20-3.94915 64.3463   3
 -10  12  20 149.755 64.3947   3
  20 -10  12 112.160 52.4232   8
 -12   9  20 1547.49 82.4613   3
  -9  12  20 1392.75 76.9511   3
  12  -8  20 297.677 55.1090   8
 -12   7  20 989.280 87.7039   3
 -20 -12  -7 1109.19 69.5979  10
 -20  -7 -12 1154.78 66.3750  10
  12  -7  20 989.307 64.2084   8
 -20 -12  -6 912.789 74.3669  10
  12  -6  20 802.502 62.4645   8
 -12   6  20 909.123 88.0913   3
  -6 -12 -20 864.938 70.3948   4
  -6 -20 -12 784.984 69.0191   4
 -12   5  20 494.751 86.3007   3
  -5 -20 -12 453.932 70.3655   4
  -5 -12 -20 430.631 70.9513   4
 -20 -12  -5 336.922 74.1096  10
  -4 -12 -20 657.103 78.4955   4
 -20 -12  -4 660.114 75.5613  10
 -12   4  20 667.654 81.1165   3
  -4 -20 -12 827.629 80.1539   4
 -12   3  20 359.050 85.8553   3
  -3 -12 -20 214.318 77.6468   4
  -3 -20 -12 318.414 79.7946   4
 -20 -12  -3 324.850 74.4294  10
 -12   2  20 356.570 85.0639   3
  -2 -12 -20 399.904 84.0220   4
  -2 -20 -12 439.027 83.0711   4
 -20 -12  -2 399.637 67.0818  10
  -1 -12 -20 1680.04 90.4337   4
 -20 -12  -1 1658.09 84.4605  10
 -12   1  20 1577.34 93.8904   3
  -1 -20 -12 1679.71 90.5428   4
 -20 -12   0 501.684 68.0187  10
   0 -12 -20 483.055 80.3016   4
   0 -20 -12 522.720 79.8876   4
   1 -12 -20 1582.97 91.3765   4
   1 -20 -12 1690.65 92.0845   4
   2 -12 -20 390.633 79.0103   4
   2 -20 -12 380.744 77.1726   4
  -2 -12  20 411.792 61.5767  11
   3 -12 -20 219.631 77.7724   4
   3 -20 -12 251.166 77.6241   4
 -12  -3  20 205.199 63.5578  11
  -3 -12  20 269.731 65.3407  11
   4 -12 -20 510.209 73.5947   4
   4 -20 -12 623.849 72.8997   4
  -4 -12  20 463.355 61.9407  11
 -12  -4  20 550.753 69.8738  11
   5 -20 -12 307.092 66.5122   4
   5 -12 -20 336.956 67.6077   4
  -5 -12  20 318.910 62.0969  11
 -12  -5  20 240.368 62.6035  11
 -12  -6  20 676.335 69.9103  11
  -6 -12  20 731.652 66.9605  11
 -12  -7  20 991.907 68.3811  11
  -7 -12  20 922.137 67.3085  11
   7 -20 -12 817.451 64.6737   9
 -12  -8  20 280.514 62.9124  11
  -8 -12  20 339.668 60.3502  11
   8 -20 -12 310.190 58.0574   9
  -9 -12  20 1215.40 62.6921  11
  12  -9 -20 1046.95 66.1307   9
   9 -12 -20 1058.62 68.6966   9
 -20 -10  12-101.503 61.5748  12
 -12 -10  20 111.878 52.4398  11
 -10 -12  20 25.5893 49.8334  11
  10 -12 -20 83.8439 57.9326   9
  12 -10 -20 29.1079 53.7028   9
 -12 -11  20 463.750 53.2924  11
 -11 -12  20 399.876 48.2454  11
  12 -11 -20 374.546 51.9034   9
  11 -12 -20 368.632 53.0531   9
  12 -12 -20 84.5416 45.3165   9
  20 -11  13 799.686 43.4253   8
  20 -13  11 771.246 43.9065   8
 -13  11  20 851.843 52.9305   3
 -11  13  20 810.237 51.6782   3
  20 -10  13 155.961 44.3007   8
  20 -13  10 50.3638 44.5054   8
 -13  10  20 144.415 57.4229   3
 -10  13  20 178.494 52.9990   3
  20  -9  13 718.160 52.6059   8
  -9  13  20 662.780 65.8834   3
 -13   9  20 841.146 67.9694   3
  20  -8  13 533.035 50.9410   8
  13  -8  20 477.019 52.2527   8
  -8  13  20 505.515 70.2893   3
 -13   8  20 577.236 72.1683   3
  13  -7  20 848.196 54.4547   8
  20  -7  13 782.984 55.3177   8
 -20 -13  -7 817.499 67.6649  10
  13  -6  20 131.540 51.5978   8
 -13   6  20 126.473 74.8166   3
 -20 -13  -6 101.616 61.7901  10
  -6 -13 -20 134.069 58.3312   4
  -6 -20 -13 145.869 59.9983   4
 -13   5  20 230.284 75.2462   3
 -20 -13  -5 213.051 61.4969  10
  -5 -13 -20 170.315 62.4974   4
  -5 -20 -13 267.317 64.1212   4
 -13   4  20 214.235 75.0157   3
 -20 -13  -4 190.104 61.7291  10
  -4 -13 -20 145.157 70.6961   4
  -4 -20 -13 183.980 72.3619   4
 -13   3  20 53.6580 80.9950   3
 -20 -13  -3 105.254 67.0659  10
  -3 -13 -20 89.5601 73.1660   4
  -3 -20 -13 180.429 72.8343   4
 -13   2  20 445.580 82.4801   3
  -2 -20 -13 444.956 79.1927   4
  -2 -13 -20 303.286 78.5585   4
 -20 -13  -2 395.834 62.3308  10
  -1 -20 -13 95.4549 75.2053   4
  -1 -13 -20-1.01839 75.2076   4
 -20 -13  -1 100.433 63.9338  10
   0 -20 -13 318.405 76.4648   4
   0 -13 -20 365.976 76.8169   4
   1 -20 -13 4.00668 74.6384   4
   1 -13 -20 19.6825 74.0661   4
   2 -20 -13 411.386 75.7191   4
   2 -13 -20 431.204 74.4428   4
   3 -13 -20 392.859 74.5971   4
   3 -20 -13 190.334 73.7774   4
 -13  -3  20 209.319 61.8968  11
   4 -13 -20 163.063 64.8509   4
   4 -20 -13 117.036 67.3928   4
 -13  -4  20 119.741 63.0121  11
   5 -20 -13 128.385 61.4294   4
   5 -13 -20 138.763 63.3969   4
  -5 -13  20 146.148 55.6303  11
 -13  -5  20 128.706 58.6868  11
 -13  -6  20 143.985 59.4416  11
  -6 -13  20 108.191 52.0503  11
 -13  -7  20 790.668 61.3929  11
  -7 -13  20 800.863 55.7758  11
   7 -20 -13 736.220 58.7212   9
 -13  -8  20 430.177 59.1688  11
  -8 -13  20 450.535 51.6339  11
   8 -20 -13 481.624 54.0837   9
 -13  -9  20 523.001 54.9093  11
  -9 -13  20 640.944 50.7562  11
   9 -13 -20 671.596 62.0465   9
 -13 -10  20 31.1809 47.3416  11
 -10 -13  20 122.615 44.5399  11
  13 -10 -20 98.8249 47.3260   9
  10 -13 -20 59.4551 54.1765   9
  11 -13 -20 950.663 52.4864   9
  20 -10  14 98.8541 36.3341   8
  20 -14  10 109.122 36.7238   8
 -14  10  20 72.4570 45.4944   3
 -10  14  20 154.506 47.3536   3
  20  -9  14 751.799 45.3944   8
  20 -14   9 713.749 43.6145   8
 -14   9  20 813.821 59.4516   3
  -9  14  20 685.210 54.6749   3
  20  -8  14 253.397 47.1004   8
 -14   8  20 154.385 61.0721   3
  14  -7  20 834.662 50.0185   8
  20  -7  14 953.979 54.7563   8
 -14   7  20 914.122 69.0643   3
  -7  14  20 747.348 67.7457   3
  20  -6  14 626.643 54.3729   8
  -6 -14 -20 628.249 54.8370   4
  -6 -20 -14 620.186 58.0769   4
 -20 -14  -5 523.082 58.2621  10
  -5 -14 -20 540.602 59.7154   4
  20  -5  14 572.551 51.0408   8
 -14   5  20 538.449 72.8775   3
  -5 -20 -14 611.401 61.9640   4
 -14   4  20 526.024 77.3233   3
 -20 -14  -4 479.261 59.7813  10
  -4 -20 -14 491.631 66.9481   4
  -4 -14 -20 527.001 66.5650   4
 -20 -14  -3 183.336 58.3358  10
  -3 -14 -20 136.349 68.9065   4
  -3 -20 -14 106.494 69.9326   4
 -20 -14  -2 432.195 59.4223  10
  -2 -14 -20 425.833 71.9212   4
  -2 -20 -14 437.768 71.4762   4
  -1 -14 -20 129.517 69.7723   4
  -1 -20 -14 153.693 70.7433   4
   0 -14 -20 452.451 71.7969   4
   0 -20 -14 535.611 72.4116   4
   1 -14 -20 256.729 72.3340   4
   1 -20 -14 136.486 71.3639   4
   2 -14 -20 452.468 67.0734   4
   2 -20 -14 448.182 68.2567   4
   3 -14 -20 149.196 64.1008   4
   3 -20 -14 84.3500 64.8742   4
 -20  -3  14 70.2730 66.0310  12
   4 -14 -20 281.816 60.4492   4
   4 -20 -14 339.059 61.3476   4
 -14  -4  20 428.641 55.5399  11
 -14  -5  20 678.772 62.4258  11
   5 -20 -14 605.754 60.7729   4
   5 -14 -20 616.590 59.4031   4
 -14  -6  20 514.761 56.1650  11
   6 -14 -20 550.484 61.0371   9
 -14  -7  20 947.076 57.7751  11
   7 -14 -20 943.942 63.0941   9
 -20  -8  14 11.4295 58.5237  12
   8 -20 -14 145.351 47.4052   9
   8 -14 -20 91.6550 56.7861   9
  10 -14 -20 134.444 46.9105   9
  20  -8  15 293.187 40.4850   8
  -8  15  20 339.594 48.6633   3
  20  -7  15 755.497 44.9671   8
  -7  15  20 675.573 57.6874   3
  20  -6  15 107.770 42.6758   8
  -5 -15 -20 101.748 50.8475   4
  -5 -20 -15 71.7145 51.0907   4
  -4 -15 -20 439.845 57.1920   4
  -4 -20 -15 375.293 59.8699   4
  -3 -15 -20 71.8290 58.3478   4
  -3 -20 -15 121.233 58.7601   4
 -20 -15  -3 28.3312 50.9774  10
  -2 -15 -20 247.257 61.4108   4
  -2 -20 -15 269.687 64.0749   4
  -1 -15 -20 245.331 66.1062   4
  -1 -20 -15 246.538 62.3806   4
   0 -15 -20 25.0986 65.8959   4
   0 -20 -15-24.8435 65.4287   4
   1 -15 -20 306.009 65.4621   4
   1 -20 -15 287.990 62.3776   4
   2 -15 -20 294.872 55.4238   9
   2 -15 -20 259.042 60.2339   4
   2 -20 -15 212.658 64.0127   4
   3 -15 -20 219.171 56.4804   9
   3 -15 -20 194.472 57.1292   4
   3 -20 -15 159.939 60.7165   4
   4 -15 -20 249.173 55.3716   9
   4 -15 -20 326.956 57.5520   4
   4 -20 -15 245.026 55.8247   4
   5 -15 -20 47.3185 53.8194   9
   5 -15 -20 37.0250 49.1400   4
   5 -20 -15 54.0181 50.8494   4
   6 -15 -20 97.8031 51.8888   9
   7 -15 -20 383.034 50.3400   9
 -20  -8  15-86.2036 46.1682  12
   8 -15 -20 361.561 49.0229   9
   9 -15 -20 598.095 47.7781   9
  -6  16  20 26.1677 49.2867   3
  -5 -16 -20 254.482 44.6589   4
  -5 -20 -16 251.366 46.1787   4
  -4 -16 -20-22.1929 47.8610   4
  -4 -20 -16 60.8843 50.2392   4
  -3 -16 -20 300.490 54.9517   4
  -3 -20 -16 327.596 51.9080   4
  -2 -16 -20 55.8246 56.6859   4
  -2 -20 -16 14.1119 55.2356   4
  -1 -16 -20 151.169 54.9462   4
  -1 -20 -16 152.411 55.6084   4
   0 -16 -20 55.0138 54.7594   4
   0 -20 -16 47.3495 57.9977   4
   1 -16 -20 118.121 53.7567   4
   1 -20 -16 164.530 53.7333   4
 -20  -2  16 93.4631 55.2549  12
   2 -16 -20 120.901 52.7207   4
   2 -20 -16 120.611 55.6824   4
   3 -16 -20 449.977 51.4912   4
   3 -20 -16 505.311 54.5892   4
   4 -16 -20 84.2371 46.6300   4
   4 -20 -16 83.7650 45.8405   4
   4 -16 -20 8.80638 45.7271   9
   5 -20 -16 500.589 43.3633   4
   5 -16 -20 352.942 43.4322   4
   5 -16 -20 425.252 47.2010   9
   6 -16 -20 154.065 44.0299   9
  -3 -20 -17 607.451 45.9833   4
  -3 -17 -20 668.681 48.6910   4
  -2 -17 -20 249.061 48.7686   4
  -2 -20 -17 254.666 44.9772   4
  -1 -20 -17 624.141 50.3869   4
  -1 -17 -20 710.490 50.5986   4
   0 -17 -20 71.3338 45.6140   4
   0 -20 -17-6.27142 46.2397   4
 -20   0  17 107.773 49.0711  12
   1 -20 -17 655.809 51.6103   4
   1 -17 -20 670.539 49.9773   4
 -20  -2  17-102.262 48.4902  12
 -17  -2  20-56.5089 44.6216  12
   3 -17 -20 735.218 46.2041   4
   3 -20 -17 708.126 46.3345   4
 -20  -4  17-99.3963 42.0881  12
 -21   0   0-12.1266 74.6348  10
 -21  -1  -1 23.7468 75.5220  10
 -21   0  -1 155.413 81.6017  10
 -21  -1   0 49.8120 78.1646  10
 -21   1  -1 167.800 74.5326  10
  -2 -21  -2-66.7581 79.7363   4
 -21  -2  -2 46.3862 83.9885  10
  -1 -21  -2 551.346 91.7133   4
 -21  -2  -1 675.346 76.1992  10
 -21  -1  -2 661.815 82.9300  10
 -21  -2   0 832.626 87.5971  10
 -21   0  -2 821.274 80.2326  10
  -2   0  21 852.817 76.9264  11
 -21  -2   1 1049.71 90.6823  10
 -21   1  -2 1039.95 76.2705  10
   1 -21  -2 914.152 93.0859   4
  -2  -1  21 955.939 76.8238  11
  -1  -2  21 969.610 89.2445  11
  -2  -2  21-61.9294 84.2992  11
  -3 -21  -3 4.97577 83.3869   4
 -21  -3  -3-1.21287 74.8516  10
  -2 -21  -3 646.017 91.5445   4
 -21  -2  -3 609.122 75.5337  10
 -21  -3  -2 652.276 85.4543  10
  -1 -21  -3 735.723 83.6052   4
 -21  -1  -3 796.862 86.3162  10
 -21  -3  -1 783.288 77.9522  10
 -21  -3   0 409.607 83.7230  10
 -21   0  -3 375.021 72.0320  10
  -3   0  21 391.649 71.1837  11
  -3  -1  21 913.478 81.1653  11
   1 -21  -3 740.318 85.4181   4
  -1  -3  21 771.352 89.1188  11
 -21  -3   1 745.307 84.0295  10
 -21   1  -3 758.347 73.3047  10
   2 -21  -3 783.714 88.4896   4
  -2  -3  21 796.139 88.2398  11
  -3  -2  21 787.626 84.2742  11
   3 -21  -3 14.8102 84.1989   4
  -3  -3  21-10.7681 83.3842  11
 -21  -3   3-10.5547 85.3140  10
  -4 -21  -4 36.4369 76.7797   4
 -21  -4  -4-8.39115 85.0327  10
  -4 -21  -3 718.800 86.4364   4
  -3 -21  -4 732.317 83.2356   4
 -21  -3  -4 815.219 86.1142  10
 -21  -4  -3 893.106 81.8427  10
  -2 -21  -4 694.583 90.7714   4
 -21  -4  -2 488.993 87.4247  10
 -21  -2  -4 538.359 74.2610  10
 -21  -1  -4 1016.92 84.2888  10
 -21  -4  -1 975.429 79.5936  10
  -1 -21  -4 904.239 84.6276   4
 -21   0  -4 1164.49 81.6469  10
  -4  -1  21 1166.67 85.7776  11
  -1  -4  21 1317.36 92.6308  11
   1 -21  -4 1070.27 85.3287   4
   2 -21  -4 477.042 88.0613   4
  -2  -4  21 410.006 85.7855  11
  -4  -2  21 443.734 72.2745  11
 -21  -4   2 522.578 88.0732  10
   4 -21  -3 563.527 83.3356   4
   3 -21  -4 569.494 82.6671   4
  -4  -3  21 572.732 84.9736  11
 -21  -4   3 571.162 76.6710  10
  -3  -4  21 690.744 85.1223  11
   4 -21  -4 49.0094 79.0178   4
  -4  -4  21 110.115 83.1030  11
 -21  -4   4-10.9162 77.0768  10
  -5  -5 -21 86.1219 77.4697   4
  -5 -21  -5-27.3596 82.3038   4
 -21  -5  -5 3.48523 82.4972  10
  -4  -5 -21 625.818 84.3768   4
  -5 -21  -4 555.810 84.7037   4
  -4 -21  -5 622.736 80.5553   4
 -21  -5  -4 615.069 86.8800  10
 -21  -4  -5 578.018 84.8757  10
  -3 -21  -5 246.563 80.8783   4
 -21  -3  -5 311.419 80.5701  10
 -21  -5  -3 276.974 76.0399  10
  -2 -21  -5 914.502 92.1363   4
 -21  -5  -2 856.321 89.7925  10
 -21  -2  -5 792.913 75.1530  10
  -1 -21  -5 621.916 82.8405   4
 -21  -1  -5 731.757 77.2991  10
   1 -21  -5 696.943 81.3863   4
 -21  -5   1 811.332 87.7648  10
  -5  -1  21 758.157 72.7846  11
  -1  -5  21 772.233 77.4064  11
   2 -21  -5 916.862 90.8162   4
 -21  -5   2 816.779 78.3503  10
  -5  -2  21 876.828 83.0386  11
  -2  -5  21 1005.08 87.8071  11
   3 -21  -5 353.590 82.9181   4
 -21  -5   3 472.205 83.4083  10
  -3  -5  21 450.107 85.5151  11
   3  -5 -21 453.948 84.8310   4
  -5  -3  21 360.521 76.8095  11
   4 -21  -5 372.487 80.7669   4
   5 -21  -4 375.607 76.4974   4
 -21  -5   4 392.286 83.7602  10
 -21  -4   5 399.560 76.4387  10
   4  -5 -21 444.152 85.3954   4
  -5  -4  21 313.338 81.8189  11
  -4  -5  21 514.493 83.8006  11
   5  -5 -21-87.1937 78.9439   4
   5 -21  -5-90.1080 71.9343   4
 -21  -5   5 36.5571 77.7134  10
  -5  -5  21 9.76430 79.5495  11
  -6   6  21 11.1320 77.8390   3
  -6 -21  -6 52.9476 76.5005   4
  -6  -6 -21-60.3900 74.0931   4
 -21  -6  -6 70.7759 78.8010  10
  -6   5  21 598.399 73.8299   3
  -5   6  21 508.653 73.2143   3
  -5 -21  -6 611.782 79.7327   4
  -6 -21  -5 497.460 77.5426   4
  -5  -6 -21 626.734 87.0808   4
  -6  -5 -21 670.612 77.8523   4
 -21  -6  -5 636.573 84.4091  10
 -21  -5  -6 622.448 82.1211  10
  -6  -4 -21 393.930 81.6872   4
  -4 -21  -6 410.743 86.1350   4
  -4  -6 -21 383.209 82.4914   4
 -21  -4  -6 283.552 80.8027  10
 -21  -6  -4 351.404 77.3641  10
  -3  -6 -21 210.181 84.8412   4
  -3 -21  -6 314.104 87.5353   4
 -21  -3  -6 208.265 70.2462  10
 -21  -6  -3 274.395 84.5730  10
  -2  -6 -21 1078.12 98.3157   4
 -21  -2  -6 1320.04 84.6176  10
  -2 -21  -6 1084.52 94.2932   4
  -1  -6 -21 127.692 83.3268   4
  -1 -21  -6 215.454 86.0390   4
   1  -6  21 208.019 82.1552  11
   0  -6 -21 1125.88 90.8093   4
 -21  -6   0 1148.07 81.3506  10
   0  -6  21 1240.58 82.2347  11
   1 -21  -6 184.281 86.3540   4
  -1  -6  21 200.822 85.1940  11
 -21  -6   1 265.958 84.8479  10
   1  -6 -21 253.141 88.9221   4
  -6  -1  21 180.230 74.4930  11
 -21  -6   2 934.738 78.9285  10
  -6  -2  21 974.594 78.0890  11
   2 -21  -6 1009.99 86.6770   4
   2  -6 -21 974.371 92.2860   4
   3  -6 -21 203.218 89.6253   4
   3 -21  -6 157.484 83.0115   4
 -21  -6   3 219.427 82.5578  10
  -6  -3  21 131.495 75.5741  11
 -21  -4   6 500.836 72.9642  10
   4  -6 -21 459.595 84.8227   4
   4 -21  -6 474.314 81.1220   4
 -21  -6   4 490.113 82.0467  10
  -4  -6  21 444.095 73.4461  11
  -6  -4  21 365.497 72.2122  11
   5  -6 -21 349.422 75.0475   4
   5 -21  -6 312.276 69.7741   4
  -5  -6  21 298.543 72.5207  11
  -6  -5  21 277.710 71.0393  11
 -21  -5   6 311.617 70.8581  10
 -21  -6   5 323.822 71.8028  10
 -21  -6   6 31.8367 72.9959  12
  -6  -6  21 59.6583 71.6625  11
 -21  -6   6-98.2181 73.9843  10
  -7   7  21-11.4699 80.5225   3
 -21  -7  -7-24.6358 77.0868  10
  -7   6  21 356.641 84.2867   3
  -6   7  21 573.576 76.2983   3
  -6  -7 -21 403.218 76.1544   4
  -6 -21  -7 489.545 72.8773   4
 -21  -6  -7 542.310 79.4936  10
 -21  -7  -6 518.303 81.1994  10
  -7   5  21 241.942 73.1647   3
  -5 -21  -7 128.822 77.0110   4
  -5  -7 -21 188.265 76.0671   4
 -21  -5  -7 55.3197 77.7941  10
 -21  -7  -5 189.056 75.7930  10
  -7   4  21 431.531 72.6746   3
  -4  -7 -21 408.558 85.3771   4
  -4 -21  -7 315.991 78.0137   4
 -21  -7  -4 301.954 80.3775  10
 -21  -4  -7 348.330 71.8074  10
  -3  -7 -21 737.425 91.2964   4
  -3 -21  -7 769.137 82.3004   4
 -21  -3  -7 703.700 77.3107  10
  -2  -7 -21 654.727 85.6277   4
  -2 -21  -7 715.943 82.5769   4
 -21  -7  -2 790.196 86.1762  10
   2  -7  21 748.091 83.7568  11
  -1 -21  -7 868.951 89.9332   4
  -1  -7 -21 881.103 95.2872   4
   1  -7  21 833.995 83.7572  11
 -21  -7  -1 926.771 86.5766  10
   0  -7 -21 320.619 93.2463   4
   0  -7  21 322.439 73.4219  11
 -21  -7   0 318.683 74.3154  10
   1  -7 -21 1099.39 96.0732   4
 -21  -7   1 1169.51 88.5604  10
  -1  -7  21 1260.37 88.9452  11
  -7  -1  21 1348.65 80.9537  11
   1 -21  -7 1032.33 89.6184   4
  -7  -2  21 709.029 78.8412  11
   2  -7 -21 565.241 85.9810   4
   2 -21  -7 612.136 84.9218   4
 -21  -7   2 663.156 76.5217  10
  -2  -7  21 669.838 75.0030  11
   3  -7 -21 1184.58 86.8988   4
 -21  -7   3 1157.79 82.7101  10
  -3  -7  21 1180.76 85.7263  11
  -7  -3  21 1126.69 79.8685  11
   3 -21  -7 1011.41 82.8349   4
   4  -7 -21 130.959 76.7952   4
   4 -21  -7 218.876 72.5259   4
 -21  -7   4 216.474 69.8718  10
  -7  -4  21 174.729 78.3523  11
 -21  -4   7 19.3092 74.0084  12
   5 -21  -7 272.088 75.9015   4
   5  -7 -21 281.286 78.8960   4
  -7  -5  21 230.696 76.4921  11
 -21  -7   5 105.085 78.7952  12
 -21  -5   7 313.294 72.3631  10
 -21  -7   5 262.824 71.2065  10
 -21  -6   7 99.8850 80.3133  12
  -7  -6  21 246.438 78.0638  11
 -21  -6   7 186.015 66.1231  10
 -21  -7   6 213.687 65.8124  10
 -21  -7   7-40.3117 71.6295  12
  -7  -7  21-1.04376 67.7378  11
  -8   8  21 16.5354 74.1888   3
 -21  -8  -8 36.6038 64.2648  10
  -8   7  21 626.171 77.3027   3
  -7   8  21 665.733 84.4242   3
 -21  -8  -7 668.576 71.7738  10
 -21  -7  -8 877.331 74.9771  10
  -6   8  21 9.63047 74.2608   3
  -8   6  21 139.589 75.4763   3
  -6  -8 -21 128.785 72.0832   4
  -6 -21  -8 112.882 69.2794   4
 -21  -6  -8 138.758 71.3017  10
 -21  -8  -6 135.641 69.9032  10
  -8   5  21 542.170 84.8561   3
  -5  -8 -21 538.059 81.7937   4
  -5 -21  -8 483.501 75.0730   4
 -21  -8  -5 441.042 80.4143  10
 -21  -5  -8 551.789 69.4826  10
  -8   4  21 509.941 79.2228   3
  -4  -8 -21 472.581 79.6087   4
  -4 -21  -8 568.050 85.0149   4
 -21  -4  -8 466.947 74.3754  10
  -8   3  21-42.8073 75.5217   3
  -3  -8 -21 98.1650 80.2943   4
  -3 -21  -8 16.1638 85.2136   4
 -21  -8  -3 60.1474 81.7067  10
   3  -8  21 188.726 68.4860  11
  -2 -21  -8 588.150 82.3109   4
  -2  -8 -21 499.848 89.8768   4
 -21  -8  -2 431.568 84.1293  10
   2  -8  21 594.683 71.6122  11
  -1 -21  -8 228.320 86.7092   4
  -1  -8 -21 161.031 81.6586   4
 -21  -8  -1 251.050 81.5559  10
   1  -8  21 185.966 69.8968  11
   0  -8 -21 291.743 83.1164   4
 -21  -8   0 406.839 73.7714  10
   0  -8  21 305.872 73.8386  11
   1 -21  -8 333.072 87.0313   4
   1  -8 -21 364.627 84.8965   4
  -1  -8  21 272.989 79.9346  11
 -21  -8   1 185.245 81.4945  10
   2  -8 -21 378.364 86.6605   4
   2 -21  -8 509.352 79.4603   4
 -21  -8   2 466.867 76.0368  10
  -2  -8  21 509.442 71.2279  11
  -8  -2  21 457.253 69.7549  11
   3  -8 -21 178.402 85.5946   4
   3 -21  -8-82.6052 79.0868   4
 -21  -8   3-71.2502 71.2369  10
  -3  -8  21 88.7690 74.9364  11
 -21  -3   8-63.8732 71.6164  12
  -8  -3  21 115.901 75.0991  11
   4  -8 -21 590.877 81.7289   4
   4 -21  -8 539.794 74.9266   4
 -21  -8   4 593.829 75.8577  10
  -8  -4  21 728.003 70.4787  11
  -4  -8  21 646.199 80.6660  11
   5  -8 -21 494.821 72.7879   4
   5 -21  -8 399.931 72.2087   4
  -5  -8  21 353.967 77.4939  11
  -8  -5  21 315.642 72.6335  11
 -21  -5   8 241.277 70.1891  10
 -21  -8   5 389.699 66.6977  10
 -21  -8   6-10.3137 77.2665  12
 -21  -6   8-112.298 79.4033  12
  -8  -6  21 175.438 67.7578  11
  -6  -8  21 215.185 77.2266  11
  -8  -7  21 480.255 72.1676  11
 -21  -8   8-103.590 74.1044  12
  -9   9  21-12.4444 72.5725   3
 -21  -9  -9 6.88663 65.6188  10
  -8   9  21 846.648 83.8415   3
  -9   8  21 810.188 79.7652   3
 -21  -8  -9 915.068 69.0433  10
 -21  -9  -8 975.807 73.7255  10
  -7   9  21 200.274 78.1191   3
  -9   7  21 146.992 80.7267   3
 -21  -7  -9 365.615 63.4636  10
 -21  -9  -7 128.080 72.5473  10
  -6   9  21 416.345 77.3101   3
  -9   6  21 493.652 82.7111   3
  -6  -9 -21 415.740 67.9944   4
  -6 -21  -9 394.055 68.6107   4
 -21  -9  -6 500.067 77.3328  10
 -21  -6  -9 365.841 67.7413  10
  -9   5  21 489.718 76.6765   3
  -5 -21  -9 601.693 73.7218   4
  -5  -9 -21 576.668 74.0840   4
   5  -9  21 512.946 64.3328  11
 -21  -5  -9 547.385 70.9467  10
  -9   4  21 194.956 79.2057   3
  -4 -21  -9 237.931 81.1649   4
  -4  -9 -21 265.347 76.3657   4
   4  -9  21 293.064 65.9100  11
 -21  -9  -4 239.685 78.0398  10
   3  -9  21 2147.30 87.6471  11
  -3  -9 -21 2019.39 98.9588   4
 -21  -9  -3 2350.47 99.0447  10
  -9   3  21 2137.04 98.3291   3
  -3 -21  -9 2228.10 101.778   4
  -2 -21  -9 825.031 86.6727   4
  -2  -9 -21 875.353 85.1014   4
 -21  -9  -2 819.292 84.6105  10
  -9   2  21 640.929 76.4131   3
   2  -9  21 859.785 76.3559  11
  -1  -9 -21 2365.24 108.568   4
 -21  -9  -1 2489.69 100.298  10
   1  -9  21 2730.14 99.4493  11
  -1 -21  -9 2515.81 106.452   4
   0  -9 -21 188.364 88.2047   4
 -21  -9   0 169.527 73.9684  10
   0  -9  21 214.143 73.2870  11
   1  -9 -21 2694.90 110.429   4
 -21  -9   1 2843.68 102.539  10
  -1  -9  21 3002.09 100.940  11
   1 -21  -9 2936.99 112.097   4
  -2  -9  21 715.938 78.5145  11
  -9  -2  21 682.737 66.9630  11
   2  -9 -21 510.884 85.7010   4
   2 -21  -9 667.816 79.1075   4
 -21  -9   2 617.595 76.1568  10
   3  -9 -21 2266.23 98.2371   4
 -21  -9   3 2287.03 91.4440  10
  -3  -9  21 2292.15 91.0633  11
  -9  -3  21 2316.37 90.6388  11
   3 -21  -9 2362.52 99.1842   4
   4 -21  -9 111.777 72.2317   4
   4  -9 -21 125.782 76.7124   4
 -21  -9   4 86.4685 64.4600  10
 -21  -4   9 43.6867 77.4475  12
  -9  -4  21 198.340 71.9368  11
  -4  -9  21 195.235 71.8889  11
  -5  -9  21 742.315 76.1676  11
  -9  -5  21 680.113 74.9717  11
   5 -21  -9 667.481 70.6104   4
   5  -9 -21 591.163 71.2648   4
  -9  -6  21 53.1268 72.0886  11
 -21  -6   9 18.3361 69.3187  12
  -6  -9  21 153.716 72.5811  11
  -9  -7  21 276.415 70.3263  11
  -7  -9  21 296.587 70.3892  11
  -8  -9  21 838.269 66.6891  11
 -21  -9   9-65.6600 64.1239  12
  -9  -9  21 37.0198 60.5871  11
 -10  10  21-39.8852 62.0657   3
 -10   9  21 136.831 69.7555   3
  -9  10  21 90.7165 66.8588   3
 -21  -9 -10 162.455 56.5186  10
 -21 -10  -9 106.023 56.6254  10
  -8  10  21 272.322 69.4831   3
 -10   8  21 258.509 74.1891   3
 -21  -8 -10 238.102 59.9667  10
 -21 -10  -8 206.424 61.6704  10
  -7  10  21 178.569 76.5910   3
 -10   7  21 138.097 78.3172   3
 -21  -7 -10 89.1931 59.8275  10
 -21 -10  -7 108.216 63.9813  10
 -10   6  21 417.172 81.7583   3
  -6 -10 -21 413.407 65.5839   4
  -6 -21 -10 485.542 65.0307   4
 -21  -6 -10 413.563 60.9192  10
 -10   5  21 219.475 78.4720   3
  -5 -10 -21 253.783 68.7483   4
  -5 -21 -10 317.666 68.9632   4
 -21 -10  -5 304.262 68.6914  10
   5 -10  21 243.060 57.5022  11
 -10   4  21 335.507 78.1047   3
  -4 -10 -21 232.653 78.6677   4
  -4 -21 -10 234.193 75.0711   4
   4 -10  21 174.107 63.5732  11
 -21 -10  -4 208.599 73.9858  10
  -3 -10 -21 467.548 83.4204   4
  -3 -21 -10 588.787 81.4774   4
 -21 -10  -3 568.873 76.9959  10
 -10   3  21 549.036 73.8963   3
   3 -10  21 623.944 63.1155  11
 -10   2  21 65.1372 71.5668   3
  -2 -21 -10-16.2744 76.5842   4
  -2 -10 -21 105.600 78.4485   4
 -21 -10  -2 84.8303 72.1703  10
   2 -10  21 60.7427 66.4644  11
 -10   1  21 527.431 76.2284   3
   1 -10  21 503.395 70.8735  11
 -21 -10  -1 595.162 70.4771  10
  -1 -10 -21 408.898 87.4098   4
  -1 -21 -10 501.413 86.6364   4
   0 -10  21 155.396 69.9142  11
 -21 -10   0 275.489 74.2246  10
   0 -10 -21 379.746 84.2794   4
 -21 -10   1 828.584 76.8710  10
  -1 -10  21 754.490 71.3299  11
   1 -21 -10 836.151 87.3213   4
   1 -10 -21 707.004 88.3726   4
   2 -10 -21 57.9743 76.8425   4
   2 -21 -10 6.31872 75.0163   4
  -2 -10  21 102.218 63.8887  11
 -10  -2  21-30.4171 61.1449  11
 -21  -2  10 22.9255 67.9117  12
 -21 -10   2 67.4330 70.6661  10
   3 -10 -21 622.571 75.2332   4
   3 -21 -10 695.848 74.2974   4
 -10  -3  21 468.732 64.3255  11
  -3 -10  21 582.080 72.4091  11
 -21 -10   3 498.829 67.6931  10
   4 -10 -21 223.938 70.4685   4
   4 -21 -10 282.935 69.0818   4
  -4 -10  21 207.367 66.7138  11
 -10  -4  21 255.306 69.5772  11
   5 -10 -21 125.071 70.1820   4
   5 -21 -10 247.515 68.5350   4
 -10  -5  21 310.922 62.7481  11
  -5 -10  21 226.026 63.4375  11
 -10  -6  21 283.890 63.0258  11
  -6 -10  21 305.728 61.7744  11
  -7 -10  21 216.647 60.4951  11
 -10  -7  21 144.606 66.5343  11
  -8 -10  21 97.4505 57.1946  11
 -21  -8  10-72.0932 63.6138  12
 -10  -8  21 97.8336 58.4749  11
  -9 -10  21 183.967 60.7676  11
 -10 -10  21 96.5615 52.8021  11
  10 -10 -21 44.5135 58.6320   9
 -11  11  21-17.7165 49.4777   3
  21 -10  11 312.582 45.8273   8
 -11   9  21-7.95267 66.1568   3
  -9  11  21 47.2305 60.5078   3
  -8  11  21 532.140 67.1632   3
 -11   8  21 451.041 67.7582   3
 -21 -11  -8 458.515 58.5524  10
 -21  -8 -11 538.994 58.5359  10
  -7  11  21 190.552 72.8274   3
 -11   7  21 246.400 75.2249   3
 -21  -7 -11 75.2203 54.6541  10
 -11   6  21 52.6860 76.4921   3
  -6 -21 -11 268.096 61.8284   4
  -6 -11 -21 111.582 59.5037   4
 -21 -11  -6 12.6227 68.9021  10
 -11   5  21 154.548 78.0106   3
  -5 -11 -21 197.653 65.1385   4
  -5 -21 -11 120.570 67.2873   4
 -21 -11  -5 106.796 63.6776  10
 -11   4  21 148.412 71.2499   3
  -4 -11 -21 95.6750 73.3635   4
  -4 -21 -11 108.205 69.9225   4
 -21 -11  -4 120.781 64.7281  10
  -3 -11 -21 1029.90 81.8234   4
 -21 -11  -3 1094.38 72.8272  10
 -11   3  21 1100.81 79.3442   3
  -3 -21 -11 1108.41 78.5219   4
  -2 -11 -21 545.044 80.6673   4
  -2 -21 -11 419.698 79.4758   4
 -21 -11  -2 340.712 71.1710  10
 -11   2  21 472.842 72.6414   3
   2 -11  21 394.145 58.6067  11
   1 -11  21 934.229 63.7968  11
  -1 -11 -21 761.126 81.2022   4
 -21 -11  -1 994.962 72.8541  10
 -11   1  21 801.982 73.3259   3
  -1 -21 -11 891.938 80.2901   4
   0 -11  21 30.2270 59.3364  11
 -21   0  11 93.3351 69.5167  12
 -21 -11   0 111.535 69.1312  10
   0 -11 -21 161.879 77.3471   4
 -21 -11   1 1279.18 75.0240  10
  -1 -11  21 1209.99 67.8751  11
   1 -21 -11 1069.36 81.2127   4
   1 -11 -21 1089.03 85.6440   4
   2 -11 -21 289.900 73.3422   4
   2 -21 -11 406.770 78.1196   4
  -2 -11  21 361.242 60.5960  11
 -21 -11   2 217.232 65.4857  10
   3 -11 -21 1105.43 79.8217   4
   3 -21 -11 853.561 77.2401   4
 -11  -3  21 839.049 66.9204  11
  -3 -11  21 1028.07 70.4184  11
   4 -11 -21 180.722 66.5126   4
   4 -21 -11-20.6529 70.7279   4
 -21  -4  11-57.0146 71.6427  12
  -4 -11  21 55.5051 59.0793  11
 -11  -4  21 61.1379 65.1067  11
   5 -11 -21 31.2562 65.3954   4
   5 -21 -11 86.8861 60.6198   4
 -21  -5  11-89.0772 66.5623  12
  -5 -11  21 27.6163 58.1786  11
 -11  -5  21 89.7100 60.1539  11
  -6 -11  21 33.8786 60.1591  11
 -21  -6  11-115.863 72.2768  12
 -11  -6  21 6.52161 58.9909  11
  -7 -11  21 303.422 59.8757  11
 -11  -7  21 358.062 59.1211  11
 -11  -8  21 518.055 62.9090  11
  -8 -11  21 534.608 55.7728  11
  11  -8 -21 566.678 60.8204   9
 -21  -9  11-6.01188 55.8247  12
  -9 -11  21 155.557 50.1134  11
  11  -9 -21 85.3260 54.1928   9
   9 -11 -21 70.1407 58.2487   9
 -11 -10  21 502.322 53.0167  11
 -10 -11  21 422.347 52.4181  11
  10 -11 -21 400.079 56.6867   9
  11 -10 -21 417.359 55.0794   9
 -11 -11  21 26.5370 46.7827  11
  11 -11 -21-21.8720 48.1103   9
  21 -12  11 135.533 33.9168   8
 -12  11  21 138.067 43.6713   3
 -11  12  21 146.228 43.7746   3
  21 -10  12 88.0599 40.4244   8
  21 -12  10 121.459 39.5406   8
 -12  10  21 79.8601 52.1934   3
 -10  12  21 159.117 47.8281   3
  21  -9  12 425.416 44.7974   8
  21  -8  12 152.913 50.7532   8
  -8  12  21 178.589 63.7618   3
 -12   8  21 229.340 63.0655   3
 -12   7  21 1092.23 71.8871   3
  -7  12  21 1118.85 74.4854   3
 -21 -12  -7 1205.39 66.9903  10
 -12   6  21 398.485 72.6075   3
  -6 -21 -12 300.192 57.7429   4
  -6 -12 -21 318.358 55.1752   4
 -21 -12  -6 252.987 59.4709  10
 -21 -12  -5 1518.22 75.9308  10
 -12   5  21 1415.54 82.4382   3
  -5 -12 -21 1411.13 71.3005   4
  -5 -21 -12 1475.04 74.4122   4
 -12   4  21 112.010 69.5928   3
  -4 -21 -12 246.926 66.0032   4
  -4 -12 -21 244.307 69.3122   4
 -21 -12  -4 228.209 66.2205  10
 -21 -12  -3 1728.66 79.2067  10
 -12   3  21 1704.01 85.5904   3
  -3 -12 -21 1590.89 82.9145   4
  -3 -21 -12 1568.17 81.2845   4
 -12   2  21 198.847 73.8725   3
 -21 -12  -2 125.503 60.9411  10
  -2 -12 -21-7.66479 74.7533   4
  -2 -21 -12 89.0360 69.8181   4
 -21 -12  -1 706.330 67.1033  10
  -1 -12 -21 635.023 74.6123   4
  -1 -21 -12 702.695 78.1386   4
 -21 -12   0 145.824 62.9838  10
   0 -12 -21 237.079 73.5557   4
   1 -21 -12 878.090 78.4023   4
   1 -12 -21 866.739 76.9336   4
  -1 -12  21 912.757 62.8170  11
   2 -12 -21 56.5635 71.0220   4
   2 -21 -12 76.3561 68.7684   4
 -21  -2  12 12.4005 66.6379  12
  -2 -12  21 91.7862 56.7146  11
   3 -12 -21 1608.79 81.9630   4
   3 -21 -12 1496.66 77.7820   4
 -12  -3  21 1618.03 72.3929  11
  -3 -12  21 1548.63 68.6261  11
   4 -21 -12 212.371 63.8513   4
   4 -12 -21 205.346 62.5064   4
  -4 -12  21 148.333 57.5933  11
 -12  -4  21 214.641 60.7679  11
 -12  -5  21 1534.15 69.4545  11
  -5 -12  21 1561.95 66.1962  11
   5 -12 -21 1527.95 73.3204   4
   5 -21 -12 1493.58 70.0219   4
  -6 -12  21 413.888 52.7309  11
 -12  -6  21 327.805 56.6523  11
 -12  -7  21 1330.02 65.2700  11
  -7 -12  21 1363.96 61.3434  11
 -21  -8  12-30.0961 62.0655  12
 -12  -8  21 136.736 56.0799  11
  -8 -12  21 139.394 48.1587  11
   8 -12 -21 186.924 60.9133   9
  -9 -12  21 450.475 48.7262  11
   9 -12 -21 406.284 56.9274   9
  12  -9 -21 330.934 49.5199   9
 -12 -10  21 80.6791 46.8656  11
 -10 -12  21 74.3882 41.5055  11
  12 -10 -21 96.1815 43.6849   9
  10 -12 -21 60.6518 47.1525   9
 -13   9  21 909.198 54.1484   3
  -9  13  21 866.346 54.5716   3
  21  -9  13 904.545 47.2682   8
  21 -13   9 820.790 43.7511   8
  21  -8  13 159.262 41.0632   8
  -7  13  21 402.993 61.0445   3
 -13   7  21 473.708 62.4644   3
  21  -7  13 468.263 48.9961   8
  21  -6  13 88.3188 47.9588   8
  -6 -13 -21 100.877 49.8275   4
  -6  13  21-52.9725 64.4154   3
 -13   6  21 22.3172 60.7916   3
 -21 -13  -6 152.529 56.8553  10
  21  -5  13 53.7614 45.0857   8
 -13   5  21-29.0510 62.7090   3
 -21 -13  -5 82.6829 56.9336  10
  -5 -13 -21 14.9507 53.3078   4
  -5 -21 -13-22.8128 55.0701   4
 -13   4  21 188.915 66.4355   3
  -4 -13 -21 379.449 62.2104   4
  -4 -21 -13 235.554 59.6343   4
 -21 -13  -4 225.275 59.3848  10
  -3 -21 -13 194.272 62.4646   4
  -3 -13 -21 222.594 65.3817   4
 -21 -13  -3 334.323 58.6963  10
  -2 -21 -13 329.324 65.4121   4
  -2 -13 -21 290.418 68.9681   4
 -21 -13  -2 334.459 56.1399  10
  -1 -21 -13 137.515 69.0853   4
  -1 -13 -21 142.479 66.1392   4
 -21   1  13 58.5586 62.2911  12
 -21 -13  -1 92.1018 54.3334  10
   0 -21 -13 53.3346 70.8577   4
   0 -13 -21 23.5861 66.5773   4
 -21   0  13-14.3885 59.4524  12
   1 -21 -13 211.214 67.5884   4
   1 -13 -21 82.7853 67.1462   4
 -21  -1  13 0.45738 64.7466  12
   2 -21 -13 282.650 65.0785   4
   2 -13 -21 269.359 62.9844   4
   3 -13 -21 328.153 62.9121   4
   3 -21 -13 314.101 61.0333   4
 -13  -3  21 248.834 51.6709  11
   4 -13 -21 111.236 56.8099   4
   4 -21 -13 150.273 60.3410   4
  -4 -13  21 164.125 48.5751  11
 -13  -4  21 180.564 52.1426  11
 -21  -4  13-29.3128 65.4359  12
   5 -13 -21-58.6779 52.1391   4
   5 -21 -13 28.9586 52.2929   4
 -21  -5  13 41.6835 58.5047  12
 -13  -5  21 54.9443 55.6995  11
  -5 -13  21 15.7785 45.8547  11
 -21  -6  13 84.2889 61.3269  12
  -6 -13  21 50.7318 46.4894  11
 -13  -6  21-4.69786 51.0109  11
 -13  -7  21 481.448 53.5672  11
  -7 -13  21 424.395 46.8620  11
 -13  -8  21 127.990 48.0377  11
  -8 -13  21 85.8810 41.2718  11
 -13  -9  21 642.665 49.6550  11
  -9 -13  21 607.615 42.2921  11
   9 -13 -21 635.071 50.4337   9
  -8  14  21 119.326 45.3446   3
  21  -7  14 1034.73 46.7922   8
  21  -6  14 151.948 40.1585   8
  -6  14  21 148.956 56.0186   3
  -5 -14 -21 1356.52 59.3323   4
  -5 -21 -14 1287.79 61.3318   4
 -21 -14  -4 121.852 49.9423  10
  -4 -14 -21 181.187 52.2591   4
  -4 -21 -14 72.1187 53.9951   4
  -3 -14 -21 1108.74 64.0396   4
  -3 -21 -14 1036.33 65.7828   4
 -21 -14  -3 1019.64 56.1798  10
 -21   2  14 45.4939 53.1500  12
 -21 -14  -2 72.0202 48.4322  10
  -2 -14 -21 65.5005 57.6530   4
  -2 -21 -14 66.2611 61.6409   4
  -1 -14 -21 275.490 62.7889   4
  -1 -21 -14 310.789 60.4945   4
   0 -14 -21 153.585 61.1059   4
   0 -21 -14 214.781 59.6617   4
   1 -14 -21 405.415 63.9840   4
   1 -21 -14 415.760 60.3833   4
   2 -14 -21 135.469 56.2494   4
   2 -21 -14 14.6210 59.5529   4
 -21  -2  14 134.822 55.8527  12
   3 -14 -21 975.127 60.5871   4
   3 -21 -14 991.674 63.8537   4
 -14  -4  21 65.7291 45.9682  11
   4 -14 -21 48.8675 54.5021   9
   4 -14 -21 94.0650 53.2258   4
   4 -21 -14 80.0723 50.2456   4
 -14  -5  21 1445.01 59.3289  11
   5 -14 -21 1397.26 59.8975   4
   5 -21 -14 1440.21 59.2651   4
   5 -14 -21 1432.95 64.5831   9
 -14  -6  21 205.823 46.1442  11
   6 -14 -21 172.386 50.8144   9
   7 -14 -21 1408.20 62.1168   9
   8 -14 -21 117.205 43.4906   9
  -5  15  21 72.5731 49.3930   3
  -4 -15 -21 191.760 45.9792   4
  -4 -21 -15 181.383 45.9755   4
  -3 -15 -21 328.518 50.6617   4
  -3 -21 -15 246.213 50.7861   4
  -2 -15 -21 673.607 56.4679   4
  -2 -21 -15 588.616 56.5077   4
  -1 -15 -21 175.205 51.7201   4
  -1 -21 -15 220.095 52.2966   4
   0 -15 -21 557.287 55.5820   4
   0 -21 -15 675.174 58.2275   4
   1 -15 -21 128.364 51.1452   4
   1 -21 -15 73.4229 51.0610   4
   2 -21 -15 589.036 55.4397   4
   2 -15 -21 490.796 54.6065   4
   3 -15 -21 240.745 45.9462   9
   3 -15 -21 247.317 49.6804   4
   3 -21 -15 317.611 50.5993   4
   4 -15 -21 131.706 46.3749   9
   4 -15 -21 124.652 43.6036   4
   4 -21 -15 83.4507 43.7361   4
   5 -15 -21 200.805 44.6917   9
 -21  -5  15 41.7674 48.4602  12
  -2 -16 -21 5.50179 43.9809   4
  -2 -21 -16 60.1691 42.7426   4
 -21   1  16-40.6119 44.4708  12
  -1 -16 -21-33.1010 44.6617   4
  -1 -21 -16-21.4383 43.2460   4
 -21   0  16-7.12273 44.5666  12
   0 -16 -21 13.7888 46.6472   4
   0 -21 -16-21.2505 44.9166   4
 -21  -1  16-9.71298 44.7399  12
   1 -16 -21 44.3754 42.7792   4
   1 -21 -16-44.4642 43.2219   4
 -21  -2  16-94.1587 42.9522  12
   2 -16 -21-45.6003 44.6828   4
   2 -21 -16 28.5817 41.7369   4
 -21  -3  16 13.7276 43.4686  12
 -22   0   0 2500.62 103.397  10
 -22  -1  -1 4381.47 131.749  10
 -22  -1   0 351.463 74.0142  10
 -22   0  -1 253.526 79.0896  10
  -1   0  22 183.059 70.0218  11
 -22   0   1 194.999 76.7732  10
 -22   1   0 308.832 70.8652  10
   0  -1  22 216.817 80.3825  11
  -1  -1  22 4300.00 131.690  11
 -22  -1   1 4433.32 134.782  10
 -22  -2  -2 1382.07 87.2416  10
 -22  -1  -2 1809.62 93.4806  10
 -22  -2  -1 1755.52 90.0585  10
 -22   2   0 122.963 69.2942  10
  -2   0  22 19.5001 67.4998  11
   0  -2  22 124.652 71.2365  11
 -22   0  -2 134.958 75.5786  10
 -22  -2   0 33.7691 82.7252  10
  -2  -1  22 1633.12 84.6937  11
  -1  -2  22 1840.03 93.8408  11
 -22   1  -2 1651.40 82.5916  10
 -22  -2   1 1773.19 95.2197  10
 -22   2  -1 1646.69 88.2009  10
 -22  -1   2 1566.39 86.9088  10
  -2  -2  22 867.119 84.9004  11
 -22   2  -2 908.069 73.0275  10
 -22  -2   2 873.236 78.5258  10
 -22  -3  -3 1937.53 96.3248  10
 -22  -2  -3 862.967 77.0588  10
 -22  -3  -2 863.122 77.7616  10
 -22  -1  -3 1751.50 90.9235  10
 -22  -3  -1 1680.19 93.7749  10
  -3   0  22 167.893 67.4700  11
 -22   0  -3 231.616 68.4024  10
 -22  -3   0 282.347 83.9419  10
   0  -3  22 161.511 76.8013  11
  -3  -1  22 1690.92 85.2306  11
  -1  -3  22 1739.93 94.3398  11
 -22   1  -3 1783.39 82.3354  10
 -22  -3   1 1781.16 94.1029  10
  -3  -2  22 672.792 82.4252  11
  -2  -3  22 778.461 79.6159  11
  -3  -3  22 1601.98 84.5282  11
 -22  -3   3 1552.08 93.2548  10
  -4  -4 -22 3694.95 122.463   4
 -22  -4  -4 3575.35 115.611  10
 -22  -3  -4 2378.82 97.8188  10
 -22  -4  -3 2296.51 102.380  10
  -3 -22  -4 2239.31 102.082   4
 -22  -4  -2 1892.04 89.8368  10
 -22  -2  -4 1856.95 91.6114  10
  -2 -22  -4 1794.88 93.8594   4
 -22  -1  -4 4599.77 138.080  10
 -22  -4  -1 4741.12 140.498  10
  -1 -22  -4 4765.86 145.527   4
   1  -4  22 4942.51 143.165  11
 -22  -4   0 284.720 79.7818  10
   0  -4  22 128.313 71.7260  11
 -22   0  -4 63.7689 68.1706  10
   1 -22  -4 4945.02 148.654   4
  -4  -1  22 4732.79 142.080  11
 -22  -4   2 1966.68 96.9817  10
 -22  -2   4 1812.44 91.1758  10
   2 -22  -4 1765.64 91.9631   4
  -4  -2  22 1846.38 90.7473  11
  -2  -4  22 1812.32 90.2945  11
 -22  -3   4 2207.78 100.917  10
 -22  -4   3 2214.54 94.2590  10
  -4  -3  22 2338.71 95.3907  11
  -3  -4  22 2251.41 92.6294  11
   4  -4 -22 4062.72 126.912   4
 -22  -4   4 3803.84 121.290  10
  -4  -4  22 3946.14 120.314  11
  -5  -5 -22 1139.47 82.9213   4
 -22  -5  -5 1176.23 78.4578  10
  -5  -4 -22 294.002 81.4300   4
  -4  -5 -22 186.846 84.0949   4
  -4 -22  -5 124.864 75.5760   4
 -22  -4  -5 231.666 69.4304  10
 -22  -5  -4 128.415 70.4550  10
  -3  -5 -22 539.887 88.4400   4
  -3 -22  -5 470.571 78.9185   4
 -22  -3  -5 552.393 75.8781  10
 -22  -5  -3 485.609 83.6753  10
  -2  -5 -22 728.210 90.1332   4
  -2 -22  -5 667.086 83.1909   4
 -22  -5  -2 669.027 80.2693  10
 -22  -2  -5 641.175 73.2022  10
  -1 -22  -5 341.134 84.4449   4
 -22  -1  -5 393.645 74.6382  10
 -22  -5  -1 218.501 73.4395  10
   0  -5 -22 395.941 88.7472   4
   0  -5  22 375.353 80.8625  11
   1 -22  -5 262.371 79.8982   4
 -22  -5   1 138.096 82.5416  10
  -1  -5  22 182.684 76.2496  11
   1  -5 -22 162.553 90.4143   4
  -5  -1  22 86.2857 67.3300  11
   2 -22  -5 406.116 81.5541   4
 -22  -5   2 376.427 73.7251  10
  -2  -5  22 606.888 82.6498  11
   2  -5 -22 400.446 82.2536   4
  -5  -2  22 433.457 69.8841  11
   3  -5 -22 780.176 84.6048   4
   3 -22  -5 579.785 76.4288   4
 -22  -3   5 490.587 81.8948  10
 -22  -5   3 570.191 81.1909  10
  -3  -5  22 549.774 77.3305  11
  -5  -3  22 589.930 79.3775  11
   4 -22  -5 280.784 70.2618   4
   4  -5 -22 133.580 75.7580   4
 -22  -4   5 134.190 69.6523  10
 -22  -5   4 184.547 78.5338  10
   5  -4 -22 101.613 75.1698   4
  -4  -5  22 113.957 70.3952  11
  -5  -4  22 226.944 72.0178  11
   5  -5 -22 1461.36 87.9842   4
 -22  -5   5 1458.27 79.7565  10
  -5  -5  22 1351.41 81.9717  11
  -6   6  22 722.338 72.1696   3
  -6  -6 -22 713.657 72.0716   4
 -22  -6  -6 697.241 73.4040  10
  -5  -6 -22 129.600 72.6498   4
  -5 -22  -6 141.283 72.2085   4
  -6  -5 -22 72.3344 73.7659   4
 -22  -5  -6 161.703 70.0344  10
 -22  -6  -5 63.2195 68.3551  10
  -4 -22  -6 1732.88 92.9124   4
  -4  -6 -22 1753.82 93.7713   4
  -6  -4 -22 1762.74 88.4526   4
 -22  -4  -6 1792.60 83.0543  10
 -22  -6  -4 1787.03 90.4018  10
  -3 -22  -6 1103.13 86.3134   4
  -3  -6 -22 1200.65 90.8914   4
  -6  -3 -22 1161.53 81.5154   4
 -22  -3  -6 1248.29 80.9662  10
 -22  -6  -3 1151.99 81.4635  10
   2  -6  22 760.618 82.4753  11
  -2  -6 -22 648.757 84.4663   4
  -2 -22  -6 880.061 88.3954   4
 -22  -2  -6 737.797 69.5668  10
 -22  -6  -2 798.901 85.5835  10
   1  -6  22 1713.68 92.2616  11
  -1 -22  -6 1958.16 93.5591   4
   0  -6 -22 43.7776 89.2206   4
 -22  -6   0 100.536 79.0865  10
   0  -6  22-72.3377 71.5229  11
   1  -6 -22 1917.57 100.552   4
 -22  -6   1 1846.63 89.0803  10
  -6  -1  22 1873.09 85.6724  11
   1 -22  -6 1880.25 93.5527   4
   2  -6 -22 872.478 87.8067   4
 -22  -6   2 1000.37 82.8134  10
  -6  -2  22 838.501 77.9215  11
   2 -22  -6 1055.56 85.7830   4
   3  -6 -22 1285.43 86.1289   4
 -22  -6   3 1157.95 85.8377  10
 -22  -3   6 1175.09 81.0050  10
  -6  -3  22 1106.34 76.8921  11
  -3  -6  22 1180.14 84.7581  11
   3 -22  -6 1269.53 86.5615   4
   4  -6 -22 2041.42 93.0882   4
 -22  -6   4 2073.54 93.7469  10
 -22  -4   6 2063.32 93.7360  10
  -4  -6  22 1997.60 94.6265  11
  -6  -4  22 2008.45 92.6795  11
   4 -22  -6 2026.36 93.0860   4
   5 -22  -6 127.694 65.7448   4
   5  -6 -22 34.5885 72.3778   4
  -6  -5  22-75.7631 74.5465  11
  -5  -6  22 144.035 76.0572  11
 -22  -6   5 140.142 67.4799  10
 -22  -5   6 174.228 72.3015  10
  -6  -6  22 947.299 76.1915  11
 -22  -6   6 1011.72 73.3166  10
  -7   7  22 4345.75 126.820   3
 -22  -7  -7 4301.10 122.915  10
  -6  -7 -22 951.834 73.4881   4
 -22  -6  -7 902.156 69.1743  10
 -22  -7  -6 908.080 71.6368  10
  -7   6  22 1076.43 78.4555   3
  -6   7  22 1034.89 72.6445   3
  -5  -7 -22 2362.02 94.5157   4
 -22  -5  -7 2185.24 86.2109  10
 -22  -7  -5 2104.16 90.4125  10
  -7   5  22 2081.21 87.5703   3
  -5   7  22 2028.79 87.0341   3
  -5 -22  -7 2147.86 92.4191   4
  -4  -7 -22 1921.12 91.0819   4
 -22  -4  -7 1876.64 85.8220  10
 -22  -7  -4 1839.61 91.5445  10
   4  -7  22 1832.89 82.2410  11
  -4 -22  -7 2018.63 88.6796   4
  -3 -22  -7 223.246 75.3979   4
  -3  -7 -22 258.095 78.1145   4
   3  -7  22 236.026 70.3388  11
 -22  -3  -7 383.687 64.9030  10
  -2  -7 -22 1340.00 93.1593   4
   2  -7  22 1322.95 83.0381  11
  -2 -22  -7 1232.19 84.7778   4
   1  -7  22 890.566 79.2848  11
  -1 -22  -7 711.701 85.7683   4
 -22  -7  -1 770.301 80.3289  10
   0  -7 -22 248.637 81.7125   4
 -22  -7   0 353.535 80.4754  10
   0  -7  22 316.890 70.5362  11
   1  -7 -22 287.498 81.4506   4
   1 -22  -7 332.964 80.5795   4
  -1  -7  22 358.734 73.5957  11
 -22  -7   1 455.519 73.0092  10
   2  -7 -22 1320.36 91.3285   4
 -22  -7   2 1270.45 83.2358  10
  -2  -7  22 1200.70 81.9649  11
  -7  -2  22 1009.26 71.7810  11
   2 -22  -7 1111.05 83.1660   4
  -3  -7  22 383.255 76.8063  11
  -7  -3  22 600.282 71.4981  11
   3 -22  -7 465.654 73.7620   4
   3  -7 -22 579.224 83.9957   4
 -22  -3   7 464.269 76.1856  10
 -22  -7   3 486.348 77.7782  10
   4  -7 -22 2067.24 92.1768   4
 -22  -7   4 1854.47 82.7584  10
 -22  -4   7 1775.91 82.5124  10
  -7  -4  22 1737.78 80.6496  11
   4 -22  -7 1824.58 84.3269   4
   5  -7 -22 2394.50 92.3198   4
  -7  -5  22 2386.96 92.7287  11
   5 -22  -7 2502.12 92.3508   4
 -22  -7   5 2434.98 92.1689  10
 -22  -5   7 2341.45 88.6988  10
  -7  -6  22 940.079 70.3361  11
  -6  -7  22 935.937 71.7127  11
 -22  -7   6 1066.21 67.7479  10
 -22  -6   7 935.028 71.3378  10
  -7  -7  22 4520.48 129.146  11
  -8   8  22 29.7578 62.9810   3
 -22  -8  -8 107.024 63.0682  10
  -8   7  22 309.260 71.0431   3
  -7   8  22 328.936 70.9476   3
 -22  -8  -7 321.347 65.2803  10
 -22  -7  -8 246.363 60.5695  10
  -6   8  22 1.54415 66.7663   3
  -8   6  22 165.115 67.1553   3
  -6 -22  -8 168.753 63.2607   4
  -6  -8 -22-10.3198 63.4134   4
 -22  -6  -8 188.875 61.3479  10
 -22  -8  -6 123.089 70.5479  10
   6  -8  22 73.1854 57.4243  11
  -5   8  22 257.310 68.0959   3
  -8   5  22 240.477 68.8975   3
  -5 -22  -8 336.820 68.6870   4
  -5  -8 -22 247.960 68.6759   4
 -22  -5  -8 174.295 66.7591  10
   5  -8  22 209.472 64.2239  11
 -22  -8  -5 199.341 71.7256  10
  -4   8  22 89.8901 66.0452   3
  -8   4  22 90.3573 65.1749   3
  -4  -8 -22 18.9252 75.8719   4
  -4 -22  -8 184.606 71.0234   4
   4  -8  22 150.696 66.5006  11
 -22  -4  -8 39.2978 60.3294  10
  -3  -8 -22 337.680 81.5637   4
  -3 -22  -8 159.024 76.6038   4
   3  -8  22 300.863 66.7622  11
  -2  -8 -22 166.890 77.1175   4
  -2 -22  -8 245.021 75.7987   4
   2  -8  22 243.432 65.5519  11
 -22  -8  -2 206.062 70.7601  10
  -1 -22  -8 393.446 84.1163   4
 -22  -8  -1 447.208 71.1107  10
   1  -8  22 436.364 66.6953  11
   0  -8 -22 132.416 84.8959   4
 -22  -8   0 78.8660 76.1716  10
   0  -8  22 84.8546 65.1653  11
   1  -8 -22 414.935 85.3332   4
   1 -22  -8 429.263 82.6286   4
 -22  -8   1 431.086 69.8063  10
  -1  -8  22 478.459 73.4210  11
   2  -8 -22 344.345 76.4649   4
   2 -22  -8 335.689 74.2791   4
 -22  -8   2 308.728 68.4392  10
  -8  -2  22 267.297 63.3391  11
  -2  -8  22 342.335 70.6782  11
   3  -8 -22 231.494 73.7298   4
   3 -22  -8 94.2231 70.5550   4
 -22  -3   8 194.056 66.7554  10
 -22  -8   3 194.887 65.8630  10
  -8  -3  22 180.583 62.8314  11
  -3  -8  22 230.058 71.9224  11
   4  -8 -22 94.9417 70.0493   4
   4 -22  -8 61.2800 66.5266   4
 -22  -4   8 162.192 63.2014  10
 -22  -8   4 194.304 67.5843  10
  -4  -8  22 236.912 65.1191  11
 -22  -4   8-89.5431 69.2756  12
  -8  -4  22 149.378 68.4749  11
   5 -22  -8 232.557 66.5359   4
   5  -8 -22 248.309 68.8607   4
  -5  -8  22 165.800 64.0574  11
  -8  -5  22 150.704 64.9592  11
 -22  -5   8 157.819 62.5281  10
 -22  -8   5 240.895 61.2664  10
  -8  -6  22 177.725 66.8477  11
  -6  -8  22 151.132 62.7454  11
  -8  -7  22 333.320 65.4487  11
 -22  -7   8-84.7392 64.0545  12
 -22  -9  -9 2090.29 72.5382  10
  -9   9  22 1908.23 78.0600   3
 -22  -8  -9 164.050 56.6844  10
 -22  -9  -8 185.624 56.8918  10
   8  -9  22 234.414 47.1046  11
  -9   8  22 237.012 66.4634   3
  -8   9  22 89.2825 64.9837   3
 -22  -7  -9 2875.71 90.1948  10
 -22  -9  -7 2671.41 91.5253  10
  -9   7  22 2648.00 97.0909   3
  -7   9  22 2619.89 96.3938   3
   7  -9  22 2673.08 84.6892  11
  -6   9  22 178.438 69.0186   3
  -9   6  22 300.827 70.9066   3
  -6  -9 -22 236.638 61.3761   4
  -6 -22  -9 193.754 61.8908   4
 -22  -6  -9 203.205 58.3560  10
 -22  -9  -6 136.871 62.1358  10
   6  -9  22 232.271 55.3783  11
   5  -9  22 1109.18 66.2041  11
  -5  -9 -22 1171.24 73.2371   4
 -22  -5  -9 1110.13 65.1300  10
  -9   5  22 1140.30 75.6362   3
  -5   9  22 1057.42 72.6217   3
  -5 -22  -9 1131.19 73.7877   4
   4  -9  22 971.891 68.1172  11
  -4  -9 -22 874.639 76.3664   4
  -9   4  22 941.866 75.1744   3
  -4 -22  -9 984.664 73.6595   4
  -9   3  22 62.0358 66.2147   3
  -3 -22  -9 52.2259 71.4266   4
  -3  -9 -22 40.2659 71.0021   4
   3  -9  22 65.7083 59.8088  11
 -22  -9  -3-37.7612 65.4688  10
   2  -9  22 607.566 67.3903  11
  -2 -22  -9 602.683 75.1607   4
  -2  -9 -22 547.257 81.4373   4
 -22  -9  -2 482.848 69.0960  10
   1  -9  22 998.806 72.6051  11
  -1 -22  -9 965.893 84.0836   4
  -1  -9 -22 790.295 81.2056   4
 -22  -9  -1 931.797 75.7191  10
   0  -9  22 72.0502 67.9766  11
   0  -9 -22 76.2637 77.2177   4
 -22  -9   0 32.6253 69.0757  10
  -1  -9  22 578.041 67.1091  11
   1 -22  -9 593.098 80.1681   4
   1  -9 -22 596.020 78.3760   4
 -22  -9   1 554.155 74.4100  10
  -9  -2  22 356.865 61.9914  11
  -2  -9  22 440.263 63.0810  11
   2 -22  -9 415.645 72.3278   4
   2  -9 -22 356.945 77.9360   4
 -22  -9   2 330.660 70.6587  10
  -9  -3  22 115.994 60.7739  11
 -22  -3   9-81.7976 68.2877  12
  -3  -9  22 162.404 67.1703  11
   3 -22  -9 153.167 67.6851   4
   3  -9 -22 184.279 76.1490   4
 -22  -9   3 74.0195 65.1029  10
 -22  -3   9 6.94091 65.8737  10
   4  -9 -22 814.640 73.2016   4
 -22  -9   4 787.984 64.0023  10
 -22  -4   9 819.898 67.9017  10
  -9  -4  22 774.408 64.7075  11
  -4  -9  22 813.661 70.5798  11
   4 -22  -9 852.091 68.9872   4
  -9  -5  22 1438.71 71.7094  11
  -5  -9  22 1494.33 72.3808  11
   5 -22  -9 1497.41 74.4307   4
   5  -9 -22 1588.53 76.6788   4
  -9  -6  22 157.661 58.7773  11
 -22  -6   9 20.0421 62.4376  12
  -9  -7  22 2855.49 93.3947  11
  -7  -9  22 3017.17 92.1391  11
  -8  -9  22 103.125 58.7269  11
  -9  -8  22 104.420 54.5517  11
  -9  -9  22 2095.15 74.2078  11
 -10  10  22 48.4454 51.7702   3
 -10   9  22 258.151 56.4748   3
  -9  10  22 163.144 53.3793   3
 -22 -10  -9 252.129 49.8650  10
 -10   8  22 103.407 62.3115   3
  -8  10  22 47.8948 56.4052   3
 -22  -8 -10-57.3959 53.5902  10
 -22 -10  -8 114.505 57.8039  10
  -7  10  22-74.9035 65.9231   3
 -10   7  22 107.648 60.4216   3
 -22  -7 -10 90.6619 54.9647  10
 -22 -10  -7 85.4195 60.7397  10
  -6  10  22 237.063 62.6997   3
 -10   6  22 260.138 62.1926   3
  -6 -10 -22 397.506 57.6250   4
  -6 -22 -10 147.666 55.9832   4
 -22  -6 -10 375.154 54.3618  10
  -5  10  22 13.9067 66.9277   3
 -10   5  22 140.769 67.9575   3
  -5 -10 -22 123.303 63.3903   4
  -5 -22 -10 58.8589 59.3685   4
   5 -10  22 55.7506 50.1433  11
 -22 -10  -5 48.2871 65.6339  10
 -10   4  22 283.378 63.8334   3
  -4 -10 -22 241.301 65.3354   4
  -4 -22 -10 306.912 66.4423   4
   4 -10  22 235.259 53.1941  11
 -22 -10  -4 262.458 61.9414  10
   3 -10  22 854.505 60.3518  11
  -3 -10 -22 800.952 72.2026   4
 -22 -10  -3 802.524 66.7646  10
 -10   3  22 979.881 70.1662   3
  -3 -22 -10 734.471 72.2236   4
  -2 -22 -10 135.384 72.3370   4
  -2 -10 -22 133.527 70.9431   4
 -22 -10  -2 143.753 66.0411  10
 -10   2  22 58.6663 61.1024   3
   2 -10  22 115.826 57.1703  11
 -22 -10  -1 2198.52 88.6695  10
   1 -10  22 2307.60 83.9994  11
  -1 -22 -10 2246.87 91.4703   4
  -1 -10 -22 2089.16 94.3770   4
   0 -10  22 84.2207 63.4641  11
 -22 -10   0 113.835 65.7728  10
   0 -10 -22 250.184 78.4010   4
 -22 -10   1 2029.75 81.0712  10
  -1 -10  22 2096.57 82.8855  11
   1 -22 -10 1980.02 88.9674   4
   1 -10 -22 2122.32 89.5545   4
   2 -10 -22 280.313 73.9476   4
   2 -22 -10 114.359 71.8489   4
  -2 -10  22 128.038 58.2264  11
 -22  -2  10 137.611 65.4243  12
 -22 -10   2 79.7255 60.8519  10
   3 -10 -22 636.078 70.4397   4
   3 -22 -10 662.548 69.1995   4
 -10  -3  22 563.165 59.8157  11
  -3 -10  22 636.406 64.1922  11
 -22  -3  10 557.115 60.3275  10
 -22 -10   3 487.399 61.6590  10
   4 -10 -22 270.711 67.4625   4
   4 -22 -10 375.329 65.9776   4
  -4 -10  22 286.362 57.7085  11
 -10  -4  22 326.977 57.5143  11
   5 -10 -22 55.7960 58.0537   4
   5 -22 -10 21.6017 56.1115   4
 -22  -5  10-91.2050 65.1177  12
  -5 -10  22 83.1815 60.3471  11
 -10  -5  22 129.391 60.3684  11
  -6 -10  22 306.183 59.8962  11
 -10  -6  22 272.466 60.3608  11
  -7 -10  22 39.9520 56.5270  11
 -22  -7  10-11.2964 58.7661  12
 -10  -7  22 63.1270 52.4461  11
 -10  -8  22 42.6326 55.8985  11
  -8 -10  22 50.6102 50.1866  11
  -9 -10  22 194.813 48.5705  11
  10  -9 -22 294.691 51.2128   9
   9 -10 -22 168.771 52.8043   9
 -10 -10  22 46.8987 43.3993  11
  10 -10 -22-18.1347 47.1610   9
  22 -10  11-7.48401 37.7542   8
 -11  10  22 89.4854 43.3074   3
 -10  11  22 72.1017 42.9122   3
  22  -9  11 446.930 42.5353   8
 -11   9  22 580.738 54.0455   3
  -9  11  22 580.012 54.6574   3
 -11   8  22 101.017 52.7128   3
  -8  11  22 111.219 56.3531   3
 -22 -11  -8 183.218 52.7614  10
  -7  11  22 551.178 62.7204   3
 -11   7  22 532.746 61.4435   3
  -6  11  22-3.46068 58.1248   3
 -11   6  22 65.4749 57.5357   3
 -22 -11  -6 94.7364 54.2691  10
  -6 -22 -11 93.0248 50.3251   4
  -6 -11 -22 136.683 51.3099   4
  -5  11  22 312.174 65.6202   3
 -11   5  22 268.314 63.5234   3
 -22 -11  -5 426.222 62.4664  10
  -5 -22 -11 451.818 59.5277   4
  -5 -11 -22 333.553 59.1007   4
 -11   4  22 230.671 63.9508   3
 -22 -11  -4 270.642 63.1587  10
  -4 -11 -22 217.008 60.1150   4
  -4 -22 -11 264.008 60.2940   4
 -11   3  22 155.952 65.3793   3
  -3 -11 -22 242.477 64.3003   4
  -3 -22 -11 282.828 65.1420   4
 -22 -11  -3 189.389 64.1618  10
  -2 -11 -22 190.405 66.4967   4
  -2 -22 -11 189.557 65.8421   4
   2 -11  22 196.246 52.6807  11
 -22 -11  -2 234.970 59.3580  10
  -1 -11 -22 458.393 74.0451   4
  -1 -22 -11 583.475 73.5791   4
   1 -11  22 465.227 53.5152  11
 -22 -11  -1 516.129 64.1273  10
   0 -11 -22-46.5745 72.1623   4
   0 -11  22 12.2559 52.0919  11
 -22 -11   0-51.6772 57.2672  10
   1 -11 -22 426.482 71.6814   4
   1 -22 -11 487.734 72.7103   4
  -1 -11  22 521.178 55.0888  11
 -22 -11   1 541.593 58.4741  10
   2 -11 -22 161.854 65.6133   4
   2 -22 -11 276.226 64.2823   4
  -2 -11  22 176.904 53.9574  11
 -22 -11   2 208.645 56.4136  10
   3 -11 -22 387.996 62.9817   4
   3 -22 -11 229.957 61.0518   4
  -3 -11  22 438.361 57.6245  11
 -11  -3  22 286.012 53.1573  11
   4 -11 -22 153.162 61.6934   4
   4 -22 -11 226.696 57.1576   4
  -4 -11  22 215.123 52.4703  11
 -11  -4  22 199.664 53.2876  11
   5 -22 -11 502.289 54.7653   4
   5 -11 -22 477.598 55.9249   4
 -11  -5  22 560.074 57.8700  11
  -5 -11  22 579.835 57.2915  11
  -6 -11  22 34.1199 53.4621  11
 -22  -6  11-83.0606 59.9148  12
 -11  -6  22 11.4081 55.8097  11
 -11  -7  22 477.050 53.1223  11
  -7 -11  22 530.479 53.8619  11
 -11  -8  22 70.8262 50.2948  11
  -8 -11  22-27.7303 47.9440  11
  11  -8 -22 82.2215 46.6657   9
   8 -11 -22 88.2549 51.6523   9
  -9 -11  22 508.226 44.0040  11
   9 -11 -22 436.065 48.9685   9
  11  -9 -22 362.138 45.9954   9
 -11 -10  22 53.4016 37.8713  11
  22  -8  12 214.689 40.9123   8
 -12   8  22 141.413 49.4399   3
  -8  12  22 100.806 47.2358   3
  22  -7  12 429.296 42.2570   8
  -7  12  22 399.159 52.6448   3
 -12   7  22 446.368 54.5453   3
  22  -6  12 713.660 47.8710   8
 -12   6  22 890.987 63.0238   3
  -6  12  22 916.623 61.1954   3
 -22 -12  -6 939.693 58.8516  10
  22  -5  12 152.170 43.7742   8
  -5  12  22 209.713 54.7449   3
 -12   5  22 178.259 59.8988   3
  -5 -22 -12 272.071 51.4442   4
  -5 -12 -22 123.761 49.7108   4
 -22 -12  -5 238.211 50.9236  10
 -22 -12  -4 761.082 57.0959  10
 -12   4  22 896.131 63.8069   3
  -4 -12 -22 826.000 59.1807   4
  -4 -22 -12 790.399 59.1800   4
 -22 -12  -3 362.860 57.0253  10
  -3 -22 -12 277.149 60.5748   4
  -3 -12 -22 274.411 58.4102   4
 -22 -12  -2 494.224 56.5433  10
  -2 -22 -12 376.069 60.8645   4
  -2 -12 -22 373.238 61.8999   4
  -1 -22 -12 1735.05 78.9289   4
 -22 -12  -1 1815.89 71.5159  10
 -22   0  12 104.866 56.8462  12
 -22 -12   0 101.719 53.5201  10
   0 -12 -22 78.1285 66.2768   4
 -22 -12   1 2014.92 72.3246  10
   1 -22 -12 1982.14 82.4986   4
   1 -12 -22 1896.00 82.0236   4
  -1 -12  22 2071.26 70.0162  11
   2 -22 -12 389.406 59.8255   4
   2 -12 -22 368.578 60.9816   4
  -2 -12  22 351.030 49.2315  11
   3 -22 -12 341.898 56.5688   4
   3 -12 -22 444.350 58.0303   4
  -3 -12  22 461.871 48.6195  11
 -12  -3  22 352.864 51.3202  11
   4 -12 -22 773.671 60.0569   4
   4 -22 -12 728.265 56.1757   4
 -12  -4  22 696.725 55.4168  11
  -4 -12  22 836.526 53.0146  11
   5 -22 -12 139.493 47.5776   4
   5 -12 -22 165.452 49.6247   4
  -5 -12  22 118.732 45.4497  11
 -22  -5  12-10.7137 57.1943  12
 -12  -5  22 149.856 48.4854  11
 -12  -6  22 790.517 51.2739  11
  -6 -12  22 751.596 46.5041  11
 -12  -7  22 297.529 46.3751  11
  -7 -12  22 434.184 42.8740  11
 -12  -8  22 167.159 46.4456  11
  -8 -12  22 232.568 39.4928  11
   8 -12 -22 234.271 49.1393   9
  -7  13  22 121.280 44.2669   3
  -6  13  22 22.0937 45.1568   3
  -5  13  22 34.1997 51.1880   3
 -22 -13  -5-11.4792 44.2401  10
  -5 -13 -22 12.5017 43.8787   4
  -5 -22 -13 116.485 43.3601   4
  -4  13  22 173.049 53.4186   3
  -4 -13 -22 210.430 50.8647   4
  -4 -22 -13 154.794 50.4711   4
 -22 -13  -4 265.851 47.3903  10
  -3 -13 -22 44.5660 50.9554   4
  -3 -22 -13 121.952 51.9824   4
 -22 -13  -3 143.266 49.9459  10
  -2 -13 -22 246.998 54.2410   4
  -2 -22 -13 323.388 54.6090   4
 -22 -13  -2 312.603 47.3737  10
  -1 -13 -22 54.8501 56.5232   4
  -1 -22 -13-31.2693 58.7305   4
 -22   1  13 54.1558 48.2643  12
 -22 -13  -1 124.024 46.1738  10
   0 -13 -22 132.371 58.9883   4
 -22   0  13-127.914 50.6470  12
   1 -13 -22 133.594 54.2124   4
   1 -22 -13 6.98172 57.2963   4
 -22  -1  13-1.48113 53.8943  12
   2 -13 -22 272.928 56.6572   4
   2 -22 -13 315.198 53.6761   4
   3 -13 -22 165.085 53.5557   4
   3 -22 -13 233.513 50.4998   4
   4 -13 -22 176.154 46.5873   4
   4 -22 -13 149.590 48.3458   4
 -13  -4  22 91.5280 42.8647  11
   5 -13 -22 78.5556 49.0316   9
   5 -13 -22 90.4157 41.9103   4
   5 -22 -13 151.142 43.2826   4
 -13  -5  22 137.561 45.1866  11
 -22  -5  13 29.4153 51.9136  12
 -13  -6  22 42.0719 42.9046  11
   6 -13 -22 102.434 47.5404   9
 -13  -7  22 27.6758 42.3297  11
 -22  -7  13-65.2059 44.1131  12
   7 -13 -22 50.1076 46.1024   9
  -4  14  22 403.338 48.4644   3
  -3 -14 -22 61.8866 45.8070   4
  -3 -22 -14 6.95518 44.4057   4
  -2 -14 -22 236.871 48.6030   4
  -2 -22 -14 266.160 46.7574   4
  -1 -14 -22 409.400 48.8007   4
  -1 -22 -14 413.610 49.8312   4
   0 -14 -22 52.8711 48.6936   4
   0 -22 -14-3.91841 48.3346   4
 -22   0  14 3.84151 44.9630  12
   1 -22 -14 490.879 51.5629   4
   1 -14 -22 531.172 51.6192   4
   2 -14 -22 267.861 46.9291   4
   2 -22 -14 248.035 46.5960   4
   3 -14 -22 82.4859 43.8617   9
 -22  -3  14-74.5901 46.4541  12
   3 -14 -22-5.02551 44.1654   4
   3 -22 -14 79.6714 43.4330   4
   4 -14 -22 474.341 44.9449   9
   0   0  23-41.3651 72.4779  11
 -23   0   0 38.7224 73.8001  10
 -23   1   1 98.4278 74.0673  10
 -23  -1  -1 6.88465 75.5092  10
   1  -1  23-30.5359 73.7453  11
 -23   1   0 230.234 74.8921  10
   0  -1  23 18.0201 70.0887  11
 -23   0  -1 104.061 68.1274  10
   0   1  23 67.2934 67.5102  11
 -23   0   1 145.744 75.7070  10
   1   0  23 70.6168 67.2830  11
 -23  -1   0 134.640 71.6859  10
  -1   0  23 3.47965 70.3320  11
 -23  -1   1-3.79953 72.8045  10
   1   1  23 38.4409 64.1312  11
 -23   1  -1 12.1709 64.7362  10
  -1  -1  23 21.8898 73.6230  11
 -23   2   2 116.602 71.8071  10
 -23  -2  -2-86.0130 75.2661  10
 -23  -1  -2 466.994 70.9234  10
 -23  -2  -1 380.265 71.1869  10
 -23   1   2 425.434 77.9524  10
   1  -2  23 495.082 69.4042  11
 -23   2   1 364.064 71.5998  10
 -23  -2   0 544.622 72.3717  10
 -23   0  -2 698.996 75.7474  10
 -23   0   2 629.556 72.2914  10
   0  -2  23 551.246 76.6769  11
 -23   2   0 583.334 74.6191  10
  -2   0  23 501.455 70.2069  11
 -23   1  -2 415.735 71.8407  10
  -2  -1  23 402.504 72.8617  11
  -1  -2  23 339.444 68.6603  11
 -23  -1   2 370.824 79.6586  10
 -23  -2   1 365.565 72.1125  10
 -23   2  -1 268.573 64.9924  10
 -23  -2   2 15.7890 75.9280  10
  -2  -2  23 121.518 71.7737  11
 -23  -3  -3-4.62018 75.1170  10
   2  -3  23 595.300 78.5023  11
 -23  -2  -3 588.082 69.8627  10
 -23  -3  -2 576.712 71.5599  10
 -23   3   1 273.963 70.6660  10
   1  -3  23 156.883 73.8910  11
 -23  -1  -3 81.8514 73.5768  10
 -23  -3  -1 105.097 73.7050  10
 -23  -3   0 263.601 76.2261  10
   0  -3  23 227.356 68.5206  11
 -23   0   3 231.885 74.5163  10
 -23   3   0 195.898 65.7172  10
 -23   0  -3 254.988 70.6218  10
  -3   0  23 304.388 68.4363  11
 -23  -1   3 122.293 70.5386  10
  -1  -3  23 194.292 74.1727  11
 -23  -3   1 191.679 71.3004  10
  -3  -1  23 136.828 69.2828  11
  -2  -3  23 527.985 74.3006  11
  -3  -2  23 521.100 73.4257  11
 -23  -3   3-23.5291 70.6995  10
  -3  -3  23 150.807 68.4271  11
 -23  -4  -4 128.308 65.7367  10
  -4  -4 -23 2.09054 75.9442   4
 -23  -3  -4 489.032 71.7742  10
 -23  -4  -3 558.456 75.3588  10
  -3  -4 -23 309.480 78.2691   4
  -4  -3 -23 442.293 78.4983   4
 -23  -2  -4 352.611 68.7326  10
   2  -4  23 111.198 72.4347  11
 -23  -4  -2 238.087 69.9995  10
  -2  -4 -23 241.581 84.5910   4
 -23   4   1 262.544 62.0803  10
   1  -4  23 165.913 68.8689  11
 -23  -1  -4 192.685 70.9479  10
 -23  -4  -1 205.878 73.3340  10
   0  -4  23 708.073 72.6557  11
 -23   0  -4 695.546 70.7712  10
 -23  -4   0 633.127 74.4052  10
   0  -4 -23 623.386 83.7001   4
  -1  -4  23 278.931 75.0603  11
  -4  -1  23 193.370 68.8964  11
   1  -4 -23 256.441 81.8315   4
 -23  -4   2 211.751 77.4618  10
  -2  -4  23 223.115 71.9391  11
 -23  -2   4 285.500 75.9726  10
   2  -4 -23 311.232 81.1938   4
  -4  -2  23 180.131 67.3778  11
 -23  -3   4 457.374 69.6187  10
 -23  -4   3 514.827 76.6381  10
   4  -3 -23 363.312 74.9117   4
  -4  -3  23 468.426 69.6988  11
  -3  -4  23 514.219 67.9395  11
   3  -4 -23 485.282 81.9709   4
 -23  -4   4 6.14610 72.6227  10
  -4  -4  23-2.89774 64.4556  11
   4  -4 -23 11.8496 72.5209   4
 -23  -5  -5 29.3007 68.5622  10
  -5  -5 -23-15.3045 66.5019   4
 -23  -4  -5 258.156 65.2838  10
 -23  -5  -4 239.612 65.5238  10
  -5  -4 -23 355.909 72.7725   4
  -4  -5 -23 149.919 75.8377   4
  -5  -3 -23 40.4320 73.3045   4
 -23  -3  -5 108.870 65.2864  10
 -23  -5  -3 113.567 73.8469  10
  -3  -5 -23 177.913 78.4929   4
 -23  -2  -5 325.235 64.0618  10
 -23  -5  -2 362.463 69.6552  10
  -2  -5 -23 393.205 83.2764   4
 -23  -1  -5 355.975 65.8972  10
 -23  -5  -1 212.690 70.5737  10
   0  -5  23 92.6632 74.6651  11
   0  -5 -23 35.9680 79.1922   4
  -1  -5  23 431.047 68.4159  11
 -23  -1   5 329.816 74.6405  10
 -23  -5   1 461.897 78.4627  10
  -5  -1  23 368.630 62.1602  11
   1  -5 -23 385.665 82.5057   4
 -23  -2   5 112.476 72.6600  10
 -23  -5   2 213.881 67.7127  10
  -5  -2  23 184.875 63.0160  11
  -2  -5  23 191.956 73.9407  11
   2  -5 -23 273.830 76.0063   4
 -23  -5   3 188.812 67.6596  10
 -23  -3   5 138.753 67.5524  10
   5  -3 -23 232.628 71.8013   4
  -5  -3  23 210.659 69.4147  11
  -3  -5  23 222.695 67.6071  11
   3  -5 -23 231.334 77.3732   4
 -23  -5   4 143.813 66.0701  10
 -23  -4   5 108.368 71.3167  10
  -5  -4  23 178.147 62.9633  11
  -4  -5  23 121.492 63.8206  11
   4  -5 -23 106.294 69.6511   4
   5  -4 -23 170.360 70.4738   4
 -23  -5   5-9.03014 68.5438  10
  -5  -5  23 32.2249 61.3527  11
   5  -5 -23 122.012 68.9573   4
 -23  -6  -6-25.8725 65.4016  10
  -6  -6 -23-18.6067 59.2775   4
 -23  -6  -5 790.527 70.5663  10
 -23  -5  -6 704.908 69.0284  10
  -5  -6 -23 658.110 68.7954   4
  -6  -5 -23 722.823 67.6029   4
   4  -6  23 352.231 68.9621  11
 -23  -4  -6 208.576 61.1303  10
 -23  -6  -4 194.846 65.7033  10
  -6  -4 -23 255.292 68.2048   4
  -4  -6 -23 306.685 74.4301   4
 -23  -6  -3 516.925 74.8626  10
   3  -6  23 543.965 65.4633  11
 -23  -3  -6 524.584 67.7309  10
  -6  -3 -23 584.976 71.7460   4
  -3  -6 -23 694.875 80.6837   4
  -6  -2 -23 682.698 72.7336   4
 -23  -6  -2 722.913 78.0901  10
   2  -6  23 608.010 68.1468  11
 -23  -2  -6 769.727 63.4693  10
  -2  -6 -23 744.582 79.3929   4
  -2 -23  -6 650.385 79.7581   4
   1  -6  23 169.379 65.8401  11
  -1 -23  -6 75.1790 73.4132   4
 -23  -6   0 651.623 76.2980  10
   0  -6 -23 622.710 83.9174   4
 -23  -6   1 167.366 67.9008  10
  -6  -1  23 202.377 63.0889  11
   1  -6 -23 217.479 82.2660   4
   1 -23  -6 160.908 73.8234   4
 -23  -6   2 717.258 70.2285  10
 -23  -2   6 756.286 69.8307  10
  -6  -2  23 574.311 68.1878  11
   2  -6 -23 679.028 77.1765   4
   2 -23  -6 707.846 76.1363   4
 -23  -3   6 487.854 73.1863  10
 -23  -6   3 555.795 69.5723  10
  -6  -3  23 425.691 65.0676  11
  -3  -6  23 438.628 72.6452  11
   3  -6 -23 537.002 73.4913   4
 -23  -4   6 129.572 63.7219  10
 -23  -6   4 294.717 64.4975  10
  -4  -6  23 227.047 69.8112  11
  -6  -4  23 200.956 66.7337  11
   4  -6 -23 204.051 67.7599   4
 -23  -5   6 536.353 63.8921  10
 -23  -6   5 450.188 67.2634  10
  -5  -6  23 430.365 68.6511  11
  -6  -5  23 439.606 66.2767  11
   5  -6 -23 360.390 65.5925   4
  -6  -6  23 54.1942 64.8702  11
 -23  -6   6 58.9436 57.6020  10
  -7   7  23 94.7278 57.7738   3
   7  -7  23 102.833 55.2507  11
 -23  -7  -7 31.9086 55.6204  10
 -23  -6  -7 644.444 62.1379  10
 -23  -7  -6 651.014 63.5195  10
  -7   6  23 624.088 59.0615   3
  -6   7  23 621.110 63.0198   3
   6  -7  23 706.911 60.8226  11
  -6  -7 -23 691.481 62.5086   4
   5  -7  23 182.807 62.2257  11
 -23  -5  -7 129.965 57.2489  10
 -23  -7  -5 117.003 61.1559  10
  -5  -7 -23 16.5696 66.3692   4
   4  -7  23 200.910 61.4862  11
 -23  -4  -7 145.123 60.2991  10
 -23  -7  -4 136.760 69.1013  10
  -4  -7 -23 47.3800 67.3617   4
   3  -7  23 336.134 65.2062  11
 -23  -3  -7 361.018 58.0730  10
 -23  -7  -3 299.219 65.6946  10
  -3  -7 -23 319.924 70.6223   4
  -3 -23  -7 292.728 69.1905   4
   2  -7  23 287.908 62.7952  11
  -2  -7 -23 324.989 73.7968   4
  -2 -23  -7 245.451 74.2920   4
 -23  -7  -1 471.478 66.0229  10
   1  -7  23 532.579 64.1675  11
  -1 -23  -7 335.321 73.6700   4
 -23  -7   0 204.314 72.2964  10
   0  -7  23 102.110 62.5296  11
   0  -7 -23 150.794 79.1588   4
 -23  -7   1 527.751 67.1251  10
  -1  -7  23 588.385 69.3228  11
   1 -23  -7 503.830 72.9051   4
   1  -7 -23 505.810 74.6412   4
 -23  -2   7 150.949 68.0410  10
 -23  -7   2 151.264 66.2557  10
  -2  -7  23 211.499 66.3076  11
  -7  -2  23 94.7198 56.9386  11
   2  -7 -23 55.9695 75.3877   4
   2 -23  -7 153.531 72.5868   4
 -23  -7   3 544.684 64.4903  10
 -23  -3   7 471.672 64.5364  10
  -7  -3  23 548.648 62.8602  11
   3  -7 -23 608.960 73.1341   4
   3 -23  -7 541.389 69.4566   4
 -23  -7   4 86.2375 59.6371  10
 -23  -4   7 176.481 60.3977  10
  -7  -4  23 108.779 59.6530  11
   4  -7 -23 117.664 68.9216   4
 -23  -5   7 218.336 57.8366  10
 -23  -7   5 363.545 59.7439  10
  -7  -5  23 248.429 62.8770  11
   5  -7 -23 246.077 60.6245   4
  -7  -6  23 426.527 60.2310  11
  -6  -7  23 436.642 59.3262  11
 -23  -7   6 378.197 56.6850  10
 -23  -6   7 380.855 57.4943  10
  -7  -7  23 59.7377 56.4110  11
 -23  -8  -8 70.4210 52.4874  10
   8  -8  23 61.9188 42.6426  11
  -8   8  23 66.4478 54.6049   3
 -23  -7  -8 860.452 56.7426  10
 -23  -8  -7 871.238 58.3332  10
  -8   7  23 830.288 58.5331   3
  -7   8  23 854.655 58.8016   3
   7  -8  23 817.559 55.0206  11
  -8   6  23 232.073 55.1694   3
  -6   8  23 216.415 59.2228   3
 -23  -6  -8 237.446 53.1637  10
 -23  -8  -6 231.663 57.1966  10
   6  -8  23 256.879 50.1828  11
  -6  -8 -23 273.251 54.0523   4
 -23  -5  -8 762.338 61.2612  10
 -23  -8  -5 779.789 68.3552  10
  -8   5  23 738.640 62.5664   3
  -5   8  23 713.067 62.4611   3
   5  -8  23 785.175 56.9701  11
  -5  -8 -23 750.058 62.5004   4
   4  -8  23 400.891 58.9360  11
 -23  -4  -8 342.138 55.1513  10
 -23  -8  -4 344.296 62.1779  10
  -4 -23  -8 407.603 65.3059   4
  -4  -8 -23 329.736 67.5770   4
   3  -8  23 537.599 61.8015  11
  -3 -23  -8 565.023 67.6580   4
  -3  -8 -23 646.823 73.3730   4
   2  -8  23 219.238 63.4704  11
 -23  -8  -2 268.796 64.0733  10
  -2 -23  -8 253.319 70.4896   4
  -2  -8 -23 334.531 74.3651   4
   1  -8  23 28.7935 60.0762  11
 -23  -8  -1 76.0808 63.0665  10
  -1 -23  -8 143.848 68.8141   4
 -23  -8   0 71.6746 68.5808  10
   0  -8  23 62.9186 61.4005  11
   0  -8 -23 43.0827 71.6332   4
 -23  -8   1 262.255 61.3830  10
  -1  -8  23 79.1921 65.2577  11
   1  -8 -23 95.4970 73.4838   4
   1 -23  -8 205.660 67.7249   4
 -23  -8   2 145.451 60.3305  10
 -23  -2   8 50.8271 65.5554  10
  -8  -2  23 132.275 54.4070  11
  -2  -8  23 254.584 60.8912  11
   2 -23  -8 182.566 69.6201   4
   2  -8 -23 237.926 68.4941   4
 -23  -8   3 356.241 62.2686  10
 -23  -3   8 382.747 60.6822  10
  -8  -3  23 385.241 56.9710  11
  -3  -8  23 460.481 64.9729  11
   3 -23  -8 467.252 66.1402   4
   3  -8 -23 472.720 69.1786   4
 -23  -8   4 315.315 59.0614  10
 -23  -4   8 164.293 57.2578  10
  -4  -8  23 206.039 58.4613  11
  -8  -4  23 181.887 60.8612  11
   4 -23  -8 161.718 63.0863   4
   4  -8 -23 258.226 62.6482   4
 -23  -8   5 777.110 59.7937  10
 -23  -5   8 699.936 57.4510  10
  -8  -5  23 744.315 58.1403  11
  -5  -8  23 889.328 59.7188  11
   5  -8 -23 733.533 61.7236   4
  -8  -6  23 223.994 55.7783  11
  -8  -7  23 822.517 60.7442  11
  -9   9  23 9.12593 44.6860   3
 -23  -8  -9 927.729 51.6250  10
 -23  -9  -8 991.028 52.9719  10
   9  -8  23 757.156 45.4160  11
  -9   8  23 1047.55 54.1743   3
  -8   9  23 832.135 54.9389   3
  -9   7  23 183.872 51.5001   3
  -7   9  23 105.440 53.7078   3
 -23  -7  -9 116.385 46.7451  10
 -23  -9  -7 232.809 52.6878  10
   7  -9  23 176.490 41.4442  11
  -9   6  23 511.357 55.8908   3
  -6   9  23 450.386 54.5812   3
 -23  -6  -9 459.018 50.1809  10
 -23  -9  -6 498.738 54.0502  10
   6  -9  23 497.553 48.9750  11
  -6  -9 -23 413.119 50.8793   4
  -5   9  23 252.026 53.5867   3
  -9   5  23 221.500 53.9468   3
 -23  -5  -9 368.086 51.9579  10
   5  -9  23 361.914 48.3339  11
 -23  -9  -5 205.931 58.4927  10
  -5  -9 -23 393.705 55.4301   4
  -4   9  23 171.127 52.9934   3
  -9   4  23 98.0430 55.5475   3
  -4  -9 -23 157.609 58.6974   4
  -4 -23  -9 169.870 61.8905   4
   4  -9  23 146.791 51.9344  11
  -3  -9 -23 244.235 63.5166   4
  -3 -23  -9 286.332 65.7355   4
   3  -9  23 422.625 56.9797  11
 -23  -9  -3 402.572 61.8275  10
  -2 -23  -9 437.010 68.4585   4
  -2  -9 -23 395.311 66.7990   4
   2  -9  23 398.948 54.2345  11
 -23  -9  -2 326.560 59.3290  10
  -1 -23  -9 354.285 66.4968   4
   1  -9  23 407.019 55.2612  11
 -23  -9  -1 366.674 61.5436  10
   0  -9 -23 192.484 70.4615   4
   0  -9  23 91.5236 55.0593  11
 -23  -9   0 118.894 61.3722  10
   1 -23  -9 541.290 66.5469   4
   1  -9 -23 558.671 68.7826   4
  -1  -9  23 585.603 58.1717  11
 -23  -9   1 552.472 65.6050  10
   2  -9 -23 228.381 68.1446   4
   2 -23  -9 241.401 65.9022   4
  -2  -9  23 210.558 57.4486  11
 -23  -9   2 153.216 60.2424  10
 -23  -2   9 176.943 56.8105  10
   3  -9 -23 678.388 66.8591   4
   3 -23  -9 504.128 64.9243   4
  -3  -9  23 509.220 60.1845  11
  -9  -3  23 467.984 54.0607  11
 -23  -3   9 560.354 60.5096  10
 -23  -9   3 498.077 57.0569  10
   4  -9 -23 100.988 59.6801   4
   4 -23  -9 168.591 55.4960   4
  -9  -4  23 179.157 51.7758  11
  -4  -9  23 195.809 57.3308  11
 -23  -4   9 205.623 55.4278  10
 -23  -9   4 210.357 53.3519  10
  -5  -9  23 401.066 53.0489  11
  -9  -5  23 345.225 52.3529  11
   5  -9 -23 373.855 55.9828   4
  -6  -9  23 472.393 51.8304  11
  -9  -6  23 379.394 51.0471  11
  -7  -9  23 270.782 48.9361  11
  -9  -7  23 270.125 50.4612  11
  -9  -8  23 984.358 53.8412  11
  -8  -9  23 1065.45 56.6848  11
   9  -9 -23 66.0606 46.8101   9
 -10   8  23 90.2148 43.8691   3
  -8  10  23 114.621 44.5015   3
 -23 -10  -8 162.300 42.7176  10
 -10   7  23 184.461 49.1718   3
  -7  10  23 145.871 48.5111   3
 -23 -10  -7 151.612 50.0935  10
 -10   6  23 243.231 53.0749   3
  -6  10  23 170.735 49.6799   3
 -23  -6 -10 273.150 43.8192  10
  -5  10  23 175.601 54.2334   3
 -10   5  23 166.319 51.8664   3
  -5 -10 -23 173.028 50.4963   4
 -23 -10  -4-10.5231 53.4434  10
  -4  10  23 113.793 53.4115   3
 -10   4  23 68.6392 51.3921   3
   4 -10  23 49.9507 43.7016  11
  -4 -10 -23 103.124 54.4944   4
  -4 -23 -10 11.4567 53.5757   4
 -23 -10  -3 173.932 54.7906  10
  -3  10  23 147.200 50.3629   3
   3 -10  23 164.670 46.5826  11
  -3 -10 -23 165.142 57.1556   4
  -3 -23 -10 99.2384 56.4372   4
  -2 -10 -23 55.8044 59.8658   4
  -2 -23 -10 15.6460 59.1527   4
   2 -10  23 2.34152 50.0250  11
 -23 -10  -2 60.2377 54.8237  10
  -1 -10 -23 57.8681 66.1151   4
  -1 -23 -10 173.529 63.7467   4
   1 -10  23 182.907 49.5892  11
 -23 -10  -1 236.342 58.6471  10
   0 -10 -23 208.667 65.8335   4
   0 -10  23 178.377 49.7886  11
 -23 -10   0 98.6745 57.7710  10
   1 -10 -23 166.426 65.5036   4
   1 -23 -10 175.479 63.2665   4
  -1 -10  23 190.829 50.4869  11
 -23 -10   1 228.719 55.1582  10
   2 -10 -23 18.1276 58.7256   4
   2 -23 -10-8.57930 57.0683   4
  -2 -10  23 39.0465 50.4247  11
 -23  -2  10 58.1024 55.4427  10
 -23 -10   2-21.7860 54.2356  10
   3 -10 -23 72.5400 56.0246   4
   3 -23 -10 9.70443 54.9320   4
 -23  -3  10-73.8647 52.9257  12
  -3 -10  23 143.743 54.1061  11
 -10  -3  23 33.7561 47.5034  11
 -23  -3  10 115.382 51.3685  10
 -23 -10   3 35.9881 48.3404  10
   4 -10 -23 75.4997 55.6143   4
   4 -23 -10 65.1093 54.1892   4
 -23  -4  10-73.7217 52.5766  12
  -4 -10  23 101.038 49.2903  11
 -10  -4  23 104.426 48.1061  11
   5 -10 -23 50.2580 49.2368   4
  -5 -10  23 149.772 48.7597  11
 -23  -5  10 130.932 51.4389  12
 -10  -5  23 126.490 47.6782  11
  -6 -10  23 162.128 48.7444  11
 -10  -6  23 146.337 47.5778  11
 -10  -7  23 81.2557 44.8143  11
  -7 -10  23 204.910 43.5592  11
  10  -7 -23 142.680 45.4198   9
 -10  -8  23 43.0209 41.1640  11
  -8 -10  23 55.6707 40.2588  11
   8 -10 -23 53.1524 46.4987   9
 -11   7  23 56.6718 43.1732   3
  -7  11  23 119.900 44.9480   3
 -11   6  23 221.128 47.9410   3
  -6  11  23 193.331 45.9490   3
  -5  11  23 369.993 49.5015   3
 -11   5  23 264.945 49.1247   3
  -5 -11 -23 303.845 45.5397   4
 -23 -11  -5 343.515 50.2394  10
  -4  11  23 51.1241 49.3898   3
  -4 -23 -11 61.6369 47.8849   4
  -4 -11 -23 46.9169 48.2864   4
 -23 -11  -4 174.932 52.5154  10
  -3  11  23 404.671 49.3556   3
 -23 -11  -3 468.545 55.5187  10
  -3 -23 -11 471.030 54.7418   4
  -3 -11 -23 490.604 53.9299   4
 -23 -11  -2 211.918 50.4239  10
  -2 -23 -11 236.293 54.4865   4
  -2 -11 -23 224.957 55.1083   4
   1 -11  23 486.639 46.9938  11
 -23 -11  -1 474.795 55.0071  10
  -1 -11 -23 431.296 61.7412   4
  -1 -23 -11 498.369 59.9149   4
   0 -11  23 215.730 46.3423  11
 -23 -11   0 226.364 51.6356  10
   0 -11 -23 151.751 59.5319   4
  -1 -11  23 604.211 48.7544  11
 -23 -11   1 621.134 52.5552  10
 -23  -1  11 519.262 51.5104  10
   1 -11 -23 577.018 62.0550   4
   1 -23 -11 555.214 60.6711   4
 -23  -2  11 20.5664 51.3589  12
  -2 -11  23 260.001 47.1553  11
 -23  -2  11 102.430 47.8273  10
   2 -23 -11 253.122 53.7784   4
   2 -11 -23 279.165 54.0164   4
   3 -23 -11 465.782 52.2961   4
   3 -11 -23 534.611 53.0638   4
 -11  -3  23 540.543 47.3621  11
  -3 -11  23 504.923 47.1973  11
  -4 -11  23 110.166 43.4539  11
 -23  -4  11 54.4334 48.3451  12
 -11  -4  23 64.3030 46.0627  11
   4 -23 -11 140.758 48.1300   4
   4 -11 -23 126.856 49.9773   4
  -5 -11  23 367.343 43.5233  11
 -11  -5  23 326.999 44.8393  11
   5 -11 -23 279.413 45.3774   4
 -11  -6  23 127.213 42.4612  11
  -6 -11  23 86.2164 39.5775  11
 -11  -7  23 87.8379 40.2662  11
  -7 -11  23 77.7346 39.0659  11
   7 -11 -23 28.1784 46.4687   9
 -23 -12  -5 609.562 48.0358  10
  -4  12  23 89.1808 42.5786   3
  -4 -23 -12 49.3582 44.7700   4
  -4 -12 -23 50.2470 44.4892   4
 -23 -12  -4 16.7452 45.6641  10
 -23 -12  -3 668.645 49.4715  10
  -3  12  23 599.436 45.3960   3
  -3 -23 -12 558.563 49.6728   4
  -3 -12 -23 617.925 50.0572   4
  -2 -23 -12 119.099 48.8937   4
  -2 -12 -23 153.913 48.5534   4
 -23 -12  -2 175.357 44.2988  10
  -1 -23 -12 325.103 53.4034   4
  -1 -12 -23 322.815 54.1490   4
 -23 -12  -1 364.796 44.9144  10
   0 -12 -23 404.573 54.8711   4
   1 -23 -12 317.566 52.4792   4
   1 -12 -23 112.076 51.8462   4
   2 -12 -23 88.8531 50.2628   4
 -23  -2  12 33.5422 44.9465  12
   3 -23 -12 423.558 45.5670   4
   3 -12 -23 339.442 48.8071   4
  -3 -12  23 421.149 40.2609  11
   4 -23 -12 87.3181 41.0551   4
   4 -12 -23 42.2368 41.7532   4
  -4 -12  23 164.129 36.8968  11
  -2 -13 -23 97.3386 43.9349   4
  -2 -23 -13 141.284 43.0346   4
  -1 -13 -23 227.644 44.4328   4
  -1 -23 -13 235.663 44.0180   4
   0 -13 -23 43.0526 42.9876   4
   1 -13 -23 158.190 42.9882   4
   1 -23 -13 150.760 42.4591   4
   2 -13 -23 54.0838 40.3372   4
   2 -23 -13 137.588 40.1959   4
 -24   0   0 71.1850 69.2382  10
   0   0  24 88.7414 63.8277  11
 -24  -1  -1 1006.27 68.9327  10
 -24   1   1 852.083 69.8299  10
   1  -1  24 841.817 66.8937  11
 -24   0  -1 147.537 65.2725  10
 -24  -1   0 47.7685 65.6691  10
  -1   0  24 131.108 57.7203  11
   0  -1  24-48.5965 66.1124  11
   1   0  24 93.3731 60.4670  11
 -24   1   0 93.3547 65.7915  10
 -24   0   1 185.391 70.5303  10
 -24   1  -1 1027.73 69.5728  10
 -24  -1   1 916.501 68.7322  10
  -1  -1  24 799.513 65.5847  11
   1   1  24 900.636 63.8132  11
 -24  -2  -2 753.069 68.7225  10
 -24   2   2 891.572 70.2927  10
   2  -2  24 838.009 72.2994  11
 -24  -1  -2 1177.29 74.9171  10
 -24  -2  -1 1276.09 77.9000  10
 -24   2   1 1222.44 71.8214  10
 -24   1   2 1214.42 76.4085  10
   1  -2  24 1173.08 74.5896  11
   2  -1  24 1157.67 69.7751  11
   0  -2  24 107.168 62.1018  11
   2   0  24 52.6221 63.6264  11
 -24   2   0 82.1140 64.4332  10
 -24   0  -2 53.4047 61.4661  10
 -24   0   2-35.9865 69.4842  10
 -24  -2   0 107.609 70.5714  10
  -2   0  24 0.41606 57.2402  11
 -24   1  -2 1332.40 71.6544  10
 -24  -2   1 1490.28 81.1978  10
 -24   2  -1 1327.76 68.3053  10
 -24  -1   2 1355.14 76.4023  10
  -2  -1  24 1172.17 68.8139  11
  -1  -2  24 1347.16 75.5647  11
   2   1  24 1283.47 69.9120  11
 -24  -2   2 829.332 70.3430  10
  -2  -2  24 866.922 67.8233  11
  -3  -3 -24 42.5839 72.1838   4
 -24  -3  -3 105.351 60.4072  10
   3  -3  24 112.817 66.9189  11
 -24   3   3 163.072 58.7953  10
  -2  -3 -24 816.087 77.6133   4
   2  -3  24 845.381 71.5306  11
   3  -2  24 797.974 72.2029  11
 -24  -2  -3 992.640 70.6310  10
 -24  -3  -2 1028.13 73.4789  10
 -24   3   2 942.413 68.9317  10
 -24   2   3 904.579 70.5179  10
 -24   3   1 64.1882 63.0810  10
 -24  -1  -3-20.8051 59.4215  10
   1  -3  24 48.9752 68.0673  11
   3  -1  24 100.358 60.6956  11
 -24  -3  -1 114.500 65.0259  10
 -24   1   3 49.8474 64.1919  10
 -24   0   3 34.3252 63.9622  10
   0  -3  24 1.79517 65.0720  11
 -24   0  -3-1.68928 57.6652  10
   3   0  24 3.48109 65.1041  11
 -24   3   0 6.64951 56.4370  10
 -24  -3   0 78.8509 66.9737  10
   0  -3 -24-56.0416 79.0198   4
  -1  -3  24 68.4585 62.1791  11
   3   1  24 57.3684 62.3064  11
 -24  -1   3 53.5913 67.0253  10
 -24  -3   1 138.058 71.7129  10
   1  -3 -24 79.2106 78.6175   4
  -3  -1  24 158.102 57.6174  11
   2  -3 -24 495.617 74.2226   4
   3  -2 -24 661.642 74.5469   4
  -2  -3  24 750.780 63.4792  11
  -3  -2  24 531.669 61.0230  11
   3  -3 -24 149.792 68.1234   4
 -24  -3   3-10.7146 69.3108  10
  -3  -3  24 69.1905 63.1317  11
  -4  -4 -24 2404.40 91.2356   4
 -24  -4  -4 2442.07 87.4380  10
   4  -4  24 2385.33 85.5195  11
  -3  -4 -24 1844.10 87.3291   4
  -4  -3 -24 1675.01 82.4457   4
 -24  -3  -4 1916.27 79.4429  10
 -24  -4  -3 1856.00 80.9021  10
 -24   4   3 1761.42 76.6897  10
 -24   3   4 1699.08 80.1020  10
   3  -4  24 1905.89 80.4469  11
   4  -3  24 1903.63 79.2932  11
  -2  -4 -24 1518.59 82.3849   4
  -4  -2 -24 1374.79 78.4813   4
 -24  -2  -4 1516.78 71.2596  10
 -24  -4  -2 1571.98 78.0526  10
 -24   4   2 1553.45 69.0118  10
 -24   2   4 1440.51 76.7250  10
   2  -4  24 1478.86 78.8014  11
 -24  -1  -4 2799.13 90.2690  10
 -24  -4  -1 2755.27 95.2810  10
 -24   4   1 2766.05 89.2407  10
 -24   1   4 2912.94 99.0188  10
   1  -4  24 2772.48 97.6723  11
   0  -4 -24 115.053 75.4677   4
   0  -4  24 169.817 64.7379  11
 -24  -4   0 103.551 68.1865  10
 -24   0   4-5.08737 62.9785  10
   1  -4 -24 2992.15 108.750   4
  -4  -1  24 2973.21 92.6933  11
  -1  -4  24 3092.32 97.0642  11
   2  -4 -24 1303.62 79.6559   4
   4  -2 -24 1332.03 79.1903   4
 -24  -4   2 1428.68 74.3169  10
 -24  -2   4 1403.05 78.9658  10
  -4  -2  24 1314.04 69.8605  11
  -2  -4  24 1389.21 73.3476  11
   3  -4 -24 1682.52 81.7175   4
   4  -3 -24 1745.37 82.0728   4
 -24  -4   3 1689.08 78.4136  10
 -24  -3   4 1905.91 82.0428  10
  -4  -3  24 1853.55 76.9130  11
  -3  -4  24 1811.28 79.9063  11
   4  -4 -24 2130.63 84.8481   4
 -24  -4   4 2178.49 83.5539  10
  -4  -4  24 2313.86 83.9962  11
  -5  -5 -24 507.722 61.7008   4
   5  -5  24 517.710 59.4832  11
 -24  -5  -5 474.944 57.6311  10
  -5  -4 -24 83.1611 59.9584   4
  -4  -5 -24 91.4564 62.3547   4
   4  -5  24 64.4719 61.1060  11
 -24  -4  -5 46.3139 55.4264  10
 -24  -5  -4 191.838 57.8506  10
  -5  -3 -24 67.5944 62.7478   4
  -3  -5 -24 89.0238 69.3908   4
 -24   5   3 62.5190 53.5928  10
 -24  -3  -5 6.34527 59.4799  10
 -24  -5  -3-16.3105 64.6384  10
  -2  -5 -24 163.490 67.7858   4
  -5  -2 -24 56.6565 66.1641   4
 -24  -5  -2 187.321 66.9405  10
 -24   5   2 155.694 53.2425  10
 -24  -2  -5 198.747 58.1287  10
 -24   2   5 134.569 62.0336  10
 -24  -5  -1 96.4205 67.4373  10
   1  -5  24 149.412 59.7136  11
 -24   1   5 136.539 66.9084  10
   0  -5 -24 26.2313 73.2977   4
   0  -5  24-64.6379 59.7531  11
   1  -5 -24 260.240 74.8944   4
 -24  -5   1 156.056 62.8841  10
   5  -1 -24 159.964 65.4030   4
  -5  -1  24 161.741 56.7103  11
  -1  -5  24 286.926 65.1845  11
  -5  -2  24 141.763 59.1581  11
  -2  -5  24 166.984 58.4856  11
   2  -5 -24 106.188 67.3367   4
   5  -2 -24 112.307 61.0104   4
 -24  -5   2 76.8818 66.8334  10
 -24  -2   5 279.984 65.6027  10
  -5  -3  24 48.7710 54.3216  11
  -3  -5  24 130.612 62.8361  11
   5  -3 -24 48.5630 59.7119   4
   3  -5 -24 82.6308 64.5517   4
 -24  -3   5 87.5969 59.5316  10
 -24  -5   3 90.3772 65.7442  10
  -4  -5  24 148.986 61.0861  11
  -5  -4  24 195.736 60.1617  11
   4  -5 -24 75.2379 62.7814   4
   5  -4 -24 97.7136 57.6111   4
 -24  -4   5 87.0465 63.5953  10
 -24  -5   4 171.942 60.3972  10
  -5  -5  24 565.628 61.7310  11
   5  -5 -24 476.828 57.7764   4
 -24  -5   5 552.625 58.9944  10
   6  -6  24 733.999 54.2799  11
  -6  -6 -24 652.450 52.7051   4
 -24  -6  -6 685.931 54.8597  10
  -6  -5 -24 203.064 54.0537   4
  -5  -6 -24 315.527 57.5081   4
   5  -6  24 212.534 54.0574  11
   6  -5  24 219.726 52.2164  11
 -24  -5  -6 275.295 53.1745  10
 -24  -6  -5 219.982 54.6664  10
   4  -6  24 1240.93 67.0944  11
  -4  -6 -24 1087.98 67.7821   4
  -6  -4 -24 1186.97 63.3212   4
 -24  -4  -6 1118.20 63.8791  10
 -24  -6  -4 1246.20 68.1126  10
   3  -6  24 1416.96 66.2548  11
  -3  -6 -24 1290.26 72.2761   4
  -6  -3 -24 1225.05 66.3093   4
 -24  -3  -6 1280.23 62.6708  10
 -24  -6  -3 1374.94 67.4675  10
 -24   6   3 1233.19 60.7917  10
  -6  -2 -24 718.268 62.9115   4
  -2  -6 -24 700.212 68.2734   4
   2  -6  24 613.527 63.0418  11
 -24  -6  -2 716.159 66.5970  10
  -6  -1 -24 1629.46 72.0436   4
   0  -6 -24-13.1943 71.6735   4
 -24  -6   0 75.4604 60.6423  10
   1  -6 -24 1638.90 84.9125   4
 -24  -1   6 1879.41 77.4665  10
  -2  -6  24 661.869 65.0696  11
  -6  -2  24 712.364 56.4707  11
   2  -6 -24 611.771 69.3333   4
 -24  -6   2 750.960 67.0804  10
 -24  -2   6 624.906 61.4283  10
  -3  -6  24 1437.01 66.9960  11
  -6  -3  24 1230.84 63.9045  11
   3  -6 -24 1321.26 71.6707   4
 -24  -6   3 1320.47 71.6004  10
 -24  -3   6 1216.46 71.8652  10
  -6  -4  24 1202.24 62.8290  11
  -4  -6  24 1193.00 64.4446  11
   4  -6 -24 1305.68 69.7027   4
 -24  -6   4 1082.35 66.9786  10
 -24  -4   6 1111.39 64.1426  10
  -6  -5  24 333.975 55.8982  11
  -5  -6  24 282.548 55.8145  11
   5  -6 -24 187.815 55.2782   4
 -24  -6   5 367.352 56.5062  10
 -24  -5   6 256.163 54.3215  10
  -6  -6  24 734.409 53.9146  11
 -24  -6   6 668.755 54.9175  10
   7  -7  24 3160.39 91.0170  11
 -24  -7  -7 3650.82 94.7975  10
 -24  -6  -7 326.988 48.6708  10
   6  -7  24 210.922 47.5084  11
   7  -6  24 284.211 50.4876  11
 -24  -7  -6 217.542 48.3397  10
   5  -7  24 1527.57 63.9033  11
   7  -5  24 1300.74 64.6601  11
  -5  -7 -24 1320.93 63.2292   4
 -24  -5  -7 1613.58 63.9776  10
 -24  -7  -5 1495.56 66.5075  10
  -4  -7 -24 433.421 60.2208   4
   4  -7  24 314.489 52.5572  11
 -24  -4  -7 332.271 49.3825  10
 -24  -7  -4 363.573 57.9114  10
  -3  -7 -24 67.4875 58.5834   4
   3  -7  24 104.766 51.7919  11
 -24  -7  -3 26.5558 60.2479  10
  -2  -7 -24 416.019 66.7686   4
   2  -7  24 447.757 55.4736  11
   1  -7  24 544.691 60.6165  11
 -24  -7  -1 580.972 65.2302  10
   0  -7  24 48.9337 58.2704  11
   0  -7 -24-11.2048 63.6784   4
 -24   0   7 91.6201 56.3334  10
 -24  -7   0 132.061 57.4068  10
  -1  -7  24 631.319 57.8320  11
   1  -7 -24 566.727 65.4380   4
 -24  -7   1 553.342 64.3076  10
 -24  -1   7 545.805 61.6966  10
  -7  -2  24 405.468 52.8339  11
   2  -7 -24 620.158 66.9391   4
 -24  -7   2 538.503 61.7657  10
 -24  -2   7 535.573 57.2310  10
  -7  -3  24 125.513 50.2883  11
   3  -7 -24 36.7609 61.6234   4
 -24  -7   3 132.158 58.5047  10
 -24  -3   7 136.908 57.3776  10
  -7  -4  24 324.553 52.3976  11
   4  -7 -24 382.927 55.7918   4
 -24  -4   7 320.060 53.3985  10
 -24  -7   4 378.263 53.4446  10
  -7  -5  24 1390.00 61.3767  11
  -5  -7  24 1447.89 65.3175  11
   5  -7 -24 1348.63 61.1728   4
 -24  -7   5 1364.01 60.7777  10
 -24  -5   7 1387.78 61.2104  10
  -7  -6  24 227.033 49.2054  11
  -6  -7  24 359.180 53.1589  11
  -7  -7  24 3268.58 91.6421  11
 -24  -7  -8 125.193 41.6631  10
 -24  -8  -7 235.344 44.1825  10
   7  -8  24 113.844 38.2784  11
   8  -7  24 214.598 38.8751  11
 -24  -6  -8 31.1822 42.2770  10
 -24  -8  -6 51.8832 49.3756  10
   6  -8  24-36.7739 41.6574  11
   8  -6  24 37.2103 42.3140  11
  -5  -8 -24 57.6070 47.2451   4
 -24  -5  -8 29.8045 43.1629  10
   5  -8  24-16.6307 46.2631  11
 -24  -8  -5-5.44851 48.0451  10
  -4  -8 -24 99.6947 51.6561   4
   4  -8  24-29.0097 48.6894  11
 -24  -8  -4 52.3587 54.8151  10
   3  -8  24 77.2181 48.7392  11
  -3  -8 -24 75.3495 56.4454   4
   2  -8  24 7.51878 50.5849  11
  -2  -8 -24 18.7529 56.7486   4
 -24  -8  -2 4.94711 52.3352  10
   1  -8  24 62.0421 49.9619  11
 -24  -8  -1 18.0908 57.7719  10
   0  -8  24 29.1113 49.7580  11
   0  -8 -24 53.5619 61.1858   4
 -24   0   8 50.2231 55.1302  10
 -24  -8   0 18.4149 53.0562  10
  -1  -8  24 89.7654 50.7102  11
   1  -8 -24 81.7574 62.4087   4
 -24  -1   8 22.5505 55.1306  10
 -24  -8   1-10.2100 56.1122  10
  -2  -8  24 89.9790 53.3101  11
   2  -8 -24 76.3325 56.9501   4
 -24  -2   8 101.495 51.9948  10
 -24  -8   2 131.566 54.8252  10
  -8  -3  24 116.926 48.3224  11
  -3  -8  24 112.571 49.0839  11
   3  -8 -24 65.1681 53.5421   4
 -24  -3   8 158.138 53.8831  10
 -24  -8   3 205.267 50.3307  10
  -8  -4  24 30.7678 46.2007  11
  -4  -8  24 90.3366 52.6687  11
   4  -8 -24 123.355 53.0772   4
 -24  -8   4-15.5104 48.4483  10
 -24  -4   8 2.68673 50.3522  10
  -8  -5  24 59.5586 47.6763  11
   5  -8 -24 92.0031 47.4805   4
  -8  -6  24-3.07202 43.6897  11
  -8  -7  24 224.743 44.4052  11
  -8  -8  24 8.04387 37.5900  11
 -24  -9  -6 244.480 47.2836  10
   9  -6  24 258.991 39.6494  11
 -24  -9  -5 1076.81 54.3974  10
  -5  -9 -24 930.135 51.2822   4
   5  -9  24 975.189 46.0892  11
   4  -9  24 359.344 43.9696  11
  -4  -9 -24 371.185 48.1146   4
   3  -9  24 36.4844 42.6691  11
  -3  -9 -24 97.5949 53.4310   4
 -24  -9  -3 41.7208 47.4007  10
   2  -9  24 281.350 44.9928  11
  -2  -9 -24 307.776 57.1991   4
 -24  -9  -2 331.891 52.8479  10
   1  -9  24 878.503 51.4306  11
  -1  -9 -24 776.703 59.4065   4
 -24  -9  -1 867.874 58.7069  10
 -24   1   9 732.340 56.7929  10
   0  -9  24 38.9575 49.5345  11
   0  -9 -24-17.0373 54.3928   4
 -24  -9   0 30.0177 51.7846  10
 -24   0   9 3.89970 49.9695  10
  -1  -9  24 721.350 53.2927  11
   1  -9 -24 682.366 57.3964   4
 -24  -9   1 743.999 52.7299  10
 -24  -1   9 694.492 53.2730  10
  -2  -9  24 195.014 46.6734  11
   2  -9 -24 198.730 52.1527   4
 -24  -9   2 235.896 49.5627  10
 -24  -2   9 259.313 51.6636  10
  -3  -9  24-1.26244 48.1693  11
  -9  -3  24 54.0265 42.9190  11
   3  -9 -24-11.1691 49.7166   4
 -24  -3   9 82.0597 45.7727  10
 -24  -9   3 56.2136 44.6583  10
   4  -9 -24 388.827 48.5853   4
  -4  -9  24 339.910 45.5546  11
  -9  -4  24 287.661 43.7575  11
  -9  -5  24 1092.00 52.8468  11
  -5  -9  24 1170.74 52.6622  11
  -6  -9  24 350.628 42.1188  11
  -9  -6  24 326.215 44.1015  11
  -7  -9  24 2612.32 74.3324  11
  -4 -10 -24 403.731 43.4141   4
 -24 -10  -4 437.128 47.5917  10
   3 -10  24 321.432 39.4888  11
  -3 -10 -24 330.060 48.8931   4
 -24 -10  -3 340.217 49.1329  10
   2 -10  24 115.717 40.0779  11
  -2 -10 -24 163.888 50.7361   4
 -24 -10  -2 96.1178 45.3353  10
 -24 -10  -1 1134.88 55.8783  10
 -24   1  10 1127.07 54.4608  10
   1 -10  24 1147.36 49.6481  11
  -1 -10 -24 1107.86 57.8099   4
   0 -10  24 92.7362 40.0262  11
   0 -10 -24 93.1360 49.3680   4
 -24   0  10 46.3228 46.1034  10
 -24 -10   0 36.9941 44.2633  10
 -24 -10   1 1238.70 53.6132  10
 -24  -1  10 1082.40 54.8383  10
  -1 -10  24 1318.59 51.9264  11
   1 -10 -24 1156.10 58.8492   4
  -2 -10  24 244.084 42.0385  11
   2 -10 -24 281.741 49.3151   4
 -24 -10   2 276.337 43.6199  10
 -24  -2  10 234.307 45.2650  10
   3 -10 -24 214.381 45.6747   4
  -3 -10  24 338.450 42.8329  11
  -4 -10  24 511.987 42.0695  11
   4 -10 -24 542.176 45.2371   4
  -5 -10  24 4.11452 39.2524  11
 -24   2  11 160.552 41.9642  10
  -2 -11 -24 148.924 44.4029   4
 -24   1  11 209.659 41.0833  10
  -1 -11 -24 168.341 44.2288   4
   0 -11 -24 115.933 43.7249   4
   1 -11 -24 188.605 42.8167   4
   2 -11 -24 136.348 41.7514   4
   0   0  25-29.3250 49.9802  11
 -25   0   0-64.1546 59.0524  10
 -25   1   1 14.5733 58.1715  10
   1  -1  25 4.78130 55.7260  11
 -25  -1  -1 72.8096 54.8385  10
   0  -1  25 14.5791 51.0971  11
  -1   0  25 101.249 52.0688  11
 -25   0   1 20.5089 59.4249  10
   1   0  25 31.4829 53.9878  11
 -25   0  -1-34.8610 52.6389  10
 -25  -1   0 60.7316 55.1181  10
 -25   1   0 69.2792 57.0297  10
  -1  -1  25 14.3646 54.1949  11
 -25   1  -1-5.48101 51.8922  10
 -25  -1   1-2.00384 55.7197  10
 -25  -2  -2 16.5603 55.1347  10
   2  -2  25 7.01024 52.5915  11
 -25   2   2-47.3420 51.7016  10
  -2  -2 -25-6.26458 61.6266   4
  -2  -1 -25 32.0838 66.5250   4
 -25   2   1 18.7758 53.8393  10
 -25  -1  -2 15.9991 56.6479  10
   1  -2  25 224.741 52.3141  11
 -25  -2  -1-23.0304 59.8051  10
   2  -1  25 61.5688 55.6049  11
 -25   1   2 10.0554 56.6791  10
   0  -2  25 35.0991 51.5372  11
 -25   2   0 118.317 50.3107  10
 -25   0   2 19.3910 53.9875  10
 -25   0  -2 60.2049 54.2713  10
   2   0  25 91.5415 51.0428  11
 -25  -2   0 40.7158 59.5664  10
   0  -2 -25 43.4521 68.0099   4
 -25  -1   2 14.8133 59.6448  10
   2   1  25 110.575 51.5756  11
 -25   1  -2 131.597 52.2228  10
 -25  -2   1 10.0516 60.8412  10
 -25   2  -1 102.889 52.2974  10
  -1  -2  25-9.85905 54.8231  11
  -2  -1  25 116.088 49.7620  11
   2  -1 -25 110.056 62.5941   4
   1  -2 -25-6.82621 64.5441   4
  -2  -2  25-58.8847 53.9375  11
 -25  -2   2-28.4258 55.9174  10
   2  -2 -25 40.4465 63.2162   4
   3  -3  25 46.2548 51.0812  11
 -25  -3  -3 36.3851 51.9568  10
 -25   3   3-10.2949 54.3028  10
  -3  -3 -25-65.9691 61.5653   4
 -25  -2  -3 56.3103 53.6913  10
 -25  -3  -2 36.4761 55.7669  10
   2  -3  25 72.8216 55.9978  11
   3  -2  25 51.8813 51.7421  11
 -25   3   2 77.9210 51.7044  10
 -25   2   3 67.0680 53.7462  10
  -3  -2 -25 196.747 59.7631   4
  -2  -3 -25 112.311 61.1417   4
  -3  -1 -25 97.8553 62.1946   4
 -25  -1  -3-45.4625 50.6029  10
 -25  -3  -1 2.32700 54.4073  10
   1  -3  25-81.5173 56.4649  11
 -25   3   1 63.3448 49.8109  10
   3  -1  25-10.8400 55.1049  11
 -25   1   3 12.7171 54.7923  10
   0  -3  25 31.2847 51.6152  11
 -25   3   0 85.7194 50.4690  10
 -25   0  -3-95.1989 49.7290  10
 -25  -3   0 18.9844 54.5117  10
 -25   0   3-6.67916 59.6548  10
   3   0  25-13.4346 51.0059  11
   0  -3 -25 57.3200 61.7955   4
 -25  -1   3 32.8381 54.8136  10
   3   1  25 29.8736 50.8341  11
 -25  -3   1-52.5825 60.5721  10
  -3  -1  25 12.1159 47.2763  11
  -1  -3  25-12.4173 53.1857  11
   3  -1 -25 31.2317 60.3931   4
   1  -3 -25 26.3370 65.3444   4
  -3  -2  25 82.0876 50.4945  11
  -2  -3  25 82.2326 50.3573  11
   3  -2 -25 80.4970 59.9450   4
   2  -3 -25 130.349 60.2111   4
  -3  -3  25 21.5087 52.1258  11
   3  -3 -25 31.1955 56.8816   4
   4  -4  25 0.33695 52.8328  11
 -25   4   4 23.7980 48.0323  10
 -25  -4  -4-32.6630 48.6082  10
  -4  -4 -25 80.9946 52.8792   4
 -25   4   3 70.9040 47.8834  10
 -25   3   4-61.1093 49.9104  10
   3  -4  25 85.7420 49.8833  11
   4  -3  25 73.7420 51.0955  11
 -25  -3  -4 83.8329 52.1533  10
 -25  -4  -3 44.1998 55.1708  10
  -4  -3 -25 57.7485 53.7972   4
  -3  -4 -25 53.2914 59.0197   4
 -25   2   4 145.187 51.9961  10
   2  -4  25 58.0203 53.1170  11
   4  -2  25 91.1336 53.3676  11
 -25   4   2 225.767 47.6921  10
 -25  -2  -4 163.049 49.7477  10
 -25  -4  -2 167.259 52.3365  10
  -4  -2 -25 201.403 55.7795   4
  -2  -4 -25 71.0579 62.0469   4
   1  -4  25 79.2150 54.4167  11
 -25  -4  -1 65.0938 54.0040  10
 -25   4   1 87.8073 46.0890  10
   4  -1  25 100.449 53.0662  11
 -25   1   4-54.1919 53.3961  10
 -25  -1  -4 23.6884 47.2752  10
  -4  -1 -25-4.60170 59.5022   4
 -25  -4   0 214.127 53.8404  10
   4   0  25 228.683 54.1444  11
 -25   0   4 220.875 57.9654  10
   0  -4  25 259.429 52.2383  11
   4   0 -25 192.321 57.5159   4
   0  -4 -25 248.493 60.6344   4
  -1  -4  25 58.4956 50.0673  11
  -4  -1  25-20.1835 48.5827  11
   4   1  25-53.6157 51.1898  11
   1  -4 -25 85.0748 61.0331   4
   4  -1 -25-48.9557 55.2720   4
  -2  -4  25 215.322 53.1372  11
  -4  -2  25 248.433 49.7789  11
 -25  -4   2 248.389 54.0403  10
   4  -2 -25 215.189 56.6789   4
   2  -4 -25 103.139 57.9014   4
  -3  -4  25 121.104 52.9018  11
  -4  -3  25 69.2133 49.9465  11
 -25  -4   3 149.909 52.6088  10
 -25  -3   4 126.377 52.1517  10
   4  -3 -25 156.491 56.0272   4
   3  -4 -25 53.9390 54.6427   4
  -4  -4  25 31.0095 49.8798  11
 -25  -4   4-37.2618 53.6313  10
   4  -4 -25 27.7218 52.0001   4
   5  -5  25 50.7999 44.2638  11
 -25  -5  -5-2.75643 45.0291  10
 -25   5   5-46.8707 46.0214  10
  -5  -5 -25 24.7991 45.8277   4
 -25   5   4 86.8992 45.2284  10
 -25  -4  -5 146.653 45.0973  10
 -25  -5  -4 88.8129 47.5545  10
 -25   4   5 61.6322 49.0906  10
  -4  -5 -25 89.9778 49.8606   4
  -5  -4 -25 84.7832 49.4810   4
 -25   5   3 95.3958 44.5055  10
   5  -3  25 211.077 48.2040  11
 -25  -3  -5 138.576 47.5228  10
 -25   3   5 181.469 47.9941  10
 -25  -5  -3 149.699 54.6591  10
  -3  -5 -25 278.923 57.4088   4
  -5  -3 -25 188.461 51.7313   4
   2  -5  25 79.4878 49.0924  11
 -25   2   5 101.920 50.5668  10
   5  -2  25 139.228 48.5374  11
 -25  -2  -5 124.105 47.1487  10
 -25  -5  -2 135.193 51.8620  10
  -2  -5 -25 132.124 58.3499   4
  -5  -2 -25 107.931 50.9004   4
 -25   1   5 40.0853 51.0279  10
   5  -1  25-58.7943 49.8911  11
 -25  -5  -1 7.37951 51.4487  10
   1  -5  25 83.4519 49.4140  11
   5   1 -25 19.6830 51.9187   4
  -5  -1 -25 42.7450 51.2824   4
   5   0  25 130.650 48.4362  11
 -25   0   5 76.8045 56.8590  10
   0  -5  25 36.2746 48.5871  11
  -5   0 -25 3.18751 51.5138   4
   5   0 -25-53.0416 52.6622   4
   0  -5 -25 57.1361 57.9185   4
  -1  -5  25 42.3319 53.2160  11
 -25  -5   1 42.7939 51.6681  10
   5   1  25 33.5162 46.5709  11
   5  -1 -25 78.7318 50.4867   4
   1  -5 -25-13.0938 58.9565   4
  -2  -5  25 99.0344 48.0173  11
  -5  -2  25 174.037 45.9795  11
 -25  -2   5 45.9237 51.4044  10
 -25  -5   2 63.0588 55.3485  10
   5   2  25 57.1191 46.2093  11
   5  -2 -25 80.3463 51.5961   4
   2  -5 -25 160.388 55.0438   4
  -3  -5  25 143.333 52.3770  11
  -5  -3  25 172.680 45.3075  11
 -25  -5   3 161.779 53.1526  10
 -25  -3   5 165.887 53.0165  10
   3  -5 -25 173.936 52.6271   4
   5  -3 -25 84.2565 48.4294   4
  -5  -4  25 120.062 48.7501  11
  -4  -5  25 59.3613 49.2116  11
 -25  -5   4 75.0784 48.7589  10
 -25  -4   5 130.893 47.8211  10
   4  -5 -25 19.3558 50.2699   4
   5  -4 -25 58.4819 45.9945   4
  -5  -5  25-56.0090 47.1565  11
 -25  -5   5-70.1219 47.5856  10
   5  -5 -25 59.6316 44.9607   4
 -25  -6  -6 66.3745 38.8406  10
   6  -6  25 30.2444 38.1289  11
 -25  -5  -6 229.409 40.8970  10
   5  -6  25 204.381 42.4326  11
 -25  -6  -5 164.753 43.8371  10
   6  -5  25 197.429 42.7730  11
 -25   5   6 242.220 44.6567  10
 -25   6   5 162.843 40.1170  10
  -5  -6 -25 163.095 42.2385   4
   4  -6  25 69.6595 43.1103  11
 -25   6   4 6.02885 40.0528  10
 -25   4   6 38.2739 43.6113  10
 -25  -4  -6 31.4763 44.1100  10
 -25  -6  -4 60.0704 46.2755  10
  -4  -6 -25 69.0927 46.0764   4
 -25   3   6 56.5987 49.5361  10
   3  -6  25 75.5742 48.3383  11
   6  -3  25 129.302 45.4771  11
 -25  -3  -6 66.7811 41.9414  10
 -25  -6  -3 46.8719 49.0607  10
  -3  -6 -25 21.0185 49.8392   4
   2  -6  25 84.9286 46.7190  11
   6  -2  25 66.0524 47.5969  11
 -25   2   6 22.9523 49.4142  10
 -25  -6  -2 5.86234 53.3182  10
  -2  -6 -25 94.5714 51.7783   4
 -25   1   6 59.4060 53.5960  10
   6  -1  25 53.0618 46.9501  11
   6   0  25 74.2790 47.9835  11
 -25  -6   0 108.073 50.5527  10
   0  -6 -25-27.2567 55.0407   4
  -1  -6  25-48.3766 47.7027  11
 -25  -6   1 13.0097 54.1259  10
   6   1  25 24.3259 46.1385  11
 -25  -1   6-21.9485 52.8245  10
   1  -6 -25 25.1639 57.0524   4
  -2  -6  25 91.0185 50.3227  11
  -6  -2  25 68.6402 42.1758  11
 -25  -6   2 101.264 53.2441  10
 -25  -2   6 98.1526 51.3810  10
   6   2  25 110.396 42.2421  11
   2  -6 -25 155.951 51.6232   4
  -6  -3  25 40.9763 44.6230  11
  -3  -6  25 78.3598 46.0995  11
 -25  -6   3 93.0615 50.8748  10
 -25  -3   6 115.943 47.9320  10
   3  -6 -25 70.6065 48.8258   4
  -6  -4  25-25.6611 42.1164  11
  -4  -6  25 25.9629 43.7835  11
 -25  -6   4-29.5753 44.7869  10
 -25  -4   6-5.40845 46.6019  10
   4  -6 -25 27.0405 45.8266   4
  -6  -5  25 211.473 41.7704  11
  -5  -6  25 168.285 41.9625  11
 -25  -6   5 174.797 43.3738  10
 -25  -5   6 238.262 42.4376  10
  -6  -6  25 27.9830 39.7875  11
   5  -7  25 62.5172 39.5537  11
 -25  -7  -5 65.8739 43.4765  10
   7  -5  25 36.5840 40.8692  11
 -25   5   7 33.2859 39.2128  10
   4  -7  25 102.794 42.5817  11
 -25  -7  -4 163.122 45.4672  10
 -25   4   7 44.4461 44.5206  10
  -4  -7 -25 86.2412 44.5428   4
   3  -7  25 59.9399 43.2902  11
 -25   3   7 91.8177 44.9505  10
   7  -3  25 62.5427 43.3684  11
 -25  -7  -3 58.8552 47.4625  10
  -3  -7 -25 148.185 46.4023   4
   2  -7  25 164.688 42.4193  11
   7  -2  25 107.610 43.3625  11
 -25   2   7 193.997 45.8267  10
  -2  -7 -25 191.640 50.5437   4
   1  -7  25 44.1000 43.2506  11
 -25  -7  -1 27.3112 50.4404  10
   0  -7  25 282.070 44.4960  11
 -25  -7   0 322.807 47.8089  10
 -25   0   7 239.556 50.5951  10
   0  -7 -25 241.630 54.2395   4
  -1  -7  25 8.25959 44.0364  11
 -25  -1   7 54.1088 50.3363  10
 -25  -7   1 55.7791 50.2312  10
   1  -7 -25 36.2110 49.1183   4
 -25  -2   7 219.848 48.4261  10
 -25  -7   2 190.601 49.3859  10
   2  -7 -25 217.378 51.5774   4
  -7  -3  25 68.1923 38.8143  11
 -25  -7   3 87.1546 43.6812  10
 -25  -3   7 101.971 43.0539  10
   3  -7 -25 68.7196 47.6205   4
  -7  -4  25 63.4396 40.8730  11
  -4  -7  25 9.11214 44.3628  11
 -25  -4   7-18.9919 41.9304  10
 -25  -7   4 79.4178 42.6852  10
   4  -7 -25 70.3133 41.3762   4
  -5  -7  25 16.2232 42.4571  11
  -7  -5  25 43.4282 40.1258  11
 -25  -8  -4 97.6166 43.2103  10
   8  -4  25 60.0147 37.0314  11
 -25   4   8 97.9125 40.3705  10
   3  -8  25 265.257 40.3762  11
 -25   3   8 291.740 42.5006  10
  -3  -8 -25 261.721 43.0208   4
   2  -8  25 4.47236 37.5760  11
 -25  -8  -2-0.29675 41.5282  10
   8  -2  25 75.3598 42.3234  11
  -2  -8 -25 2.71394 44.2896   4
   1  -8  25 75.9720 42.7337  11
 -25   1   8 17.9787 42.8694  10
 -25  -8  -1 121.589 46.5296  10
  -1  -8 -25 50.7626 48.4203   4
   0  -8  25 10.4865 40.8182  11
 -25  -8   0-16.4972 43.9450  10
 -25   0   8 52.8385 41.9501  10
   0  -8 -25-11.3068 45.9728   4
  -1  -8  25 69.5713 42.1480  11
 -25  -1   8 108.076 43.0550  10
 -25  -8   1 52.3434 42.1353  10
   1  -8 -25 68.5848 48.7148   4
  -2  -8  25 12.0826 42.8110  11
 -25  -2   8 24.0123 41.4868  10
 -25  -8   2 31.4059 41.2573  10
   2  -8 -25 38.9235 43.2525   4
  -3  -8  25 318.503 40.5452  11
   3  -8 -25 271.801 43.8069   4
  -4  -8  25 69.3791 37.3936  11
   0  -9 -25 102.068 41.9734   4
 -26   0   0-0.30264 47.0818  10
   0   0 -26 39.3204 49.7841   4
   0   0  26 7.41490 39.0646  11
 -26  -1  -1 182.124 44.8118  10
 -26   1   1 43.3568 46.4839  10
   1  -1  26 63.1922 43.1165  11
   1   1 -26 73.2820 52.3022   4
 -26   0  -1 22.6453 42.9559  10
 -26  -1   0-4.94619 47.7945  10
 -26   1   0 30.2546 44.4304  10
 -26   0   1-24.7733 48.2288  10
   0  -1  26 77.8742 40.3668  11
   1   0  26-45.6412 40.2410  11
   1   0 -26 100.479 53.2637   4
   0  -1 -26-23.7086 53.9627   4
  -1  -1  26 140.969 41.9384  11
 -26   1  -1 97.9724 41.1076  10
 -26  -1   1 130.212 47.6695  10
   1  -1 -26 20.3997 50.9605   4
   2  -2  26 829.362 46.6950  11
 -26  -2  -2 868.261 50.5403  10
 -26   2   2 896.794 48.1706  10
  -2  -2 -26 755.418 55.8836   4
 -26   2   1 443.456 44.0004  10
 -26  -2  -1 563.091 46.7450  10
 -26   1   2 495.605 46.8558  10
 -26  -1  -2 482.863 44.3390  10
   2  -1  26 472.552 45.7176  11
   1  -2  26 427.166 43.1087  11
   2   1 -26 481.507 51.1938   4
  -2  -1 -26 387.239 50.6453   4
   0  -2  26 112.584 41.6759  11
   2   0  26 150.907 41.7246  11
 -26   0  -2 91.9653 42.1974  10
 -26  -2   0 95.3146 45.9396  10
 -26   2   0 65.8886 40.5879  10
 -26   0   2 167.746 44.9425  10
   0  -2 -26 69.4243 50.3661   4
  -2   0 -26 64.9631 49.0416   4
   2   0 -26 184.465 48.3231   4
 -26  -1   2 495.708 47.2669  10
 -26  -2   1 518.245 48.6687  10
  -1  -2  26 474.538 45.6546  11
  -2  -1  26 478.197 42.0434  11
  -2   1 -26 484.523 52.6607   4
   1  -2 -26 534.910 52.4701   4
   2  -1 -26 435.441 53.7193   4
  -2  -2  26 626.830 44.3648  11
 -26  -2   2 718.578 50.3191  10
   2  -2 -26 645.616 51.7129   4
   3  -3  26 847.276 46.5850  11
 -26  -3  -3 966.897 49.0173  10
 -26   3   3 872.733 46.0830  10
  -3  -3 -26 804.652 50.9966   4
 -26   2   3 164.050 44.9716  10
   3  -2  26 135.754 40.8052  11
 -26  -2  -3 118.042 39.7271  10
 -26  -3  -2 172.941 43.0446  10
 -26   3   2 181.986 40.1939  10
   2  -3  26 121.853 44.1285  11
   3   2 -26 162.171 46.1037   4
  -2  -3 -26 127.656 48.3481   4
  -3  -2 -26 164.902 48.2402   4
  -3  -1 -26 706.722 51.6175   4
   3   1 -26 705.059 50.7560   4
   1  -3  26 757.283 49.5999  11
   3  -1  26 851.137 47.1023  11
 -26  -1  -3 812.491 44.8233  10
 -26  -3  -1 885.090 51.4715  10
 -26   3   1 765.247 44.1046  10
 -26   1   3 768.881 50.4033  10
  -3   0 -26 106.017 47.2913   4
   3   0 -26 83.1077 46.5509   4
   0  -3 -26 138.871 50.8868   4
   0  -3  26 231.044 43.9927  11
 -26  -3   0 192.918 46.2379  10
   3   0  26 34.0925 40.6436  11
 -26   0   3 217.813 48.4092  10
   1  -3 -26 699.271 52.2234   4
   3  -1 -26 664.309 52.8465   4
  -3   1 -26 687.750 52.5778   4
  -1  -3  26 730.156 46.1942  11
 -26  -3   1 777.756 49.8611  10
 -26  -1   3 773.145 49.2472  10
   2  -3 -26 256.360 49.2759   4
   3  -2 -26 207.332 45.9703   4
  -2  -3  26 255.851 42.1772  11
  -3  -2  26 271.201 38.9002  11
 -26  -3   2 221.988 47.3795  10
 -26  -2   3 209.240 48.2072  10
  -3  -3  26 851.798 46.1412  11
   3  -3 -26 753.211 48.9283   4
   4  -4  26 767.476 42.7322  11
  -3  -4 -26 343.286 43.4442   4
   4  -3  26 462.799 43.5237  11
   3  -4  26 384.746 40.6343  11
 -26  -4  -3 442.236 41.0285  10
  -2  -4 -26 620.968 47.4402   4
  -4  -2 -26 586.998 45.6795   4
   2  -4  26 580.799 44.8150  11
   4  -2  26 578.890 45.3840  11
 -26  -4  -2 683.832 46.0296  10
 -26   2   4 608.660 45.8710  10
  -4  -1 -26 644.368 48.5211   4
   1  -4  26 678.640 47.3451  11
   4  -1  26 568.653 43.0572  11
 -26  -4  -1 699.565 49.8328  10
 -26   1   4 649.122 45.5833  10
  -4   0 -26 133.937 42.9899   4
   0  -4 -26-15.0207 49.4818   4
   4   0 -26-2.89550 41.7575   4
   0  -4  26 55.1532 42.8541  11
   4   0  26 20.5291 38.3285  11
 -26  -4   0-2.98536 45.0945  10
 -26   0   4 53.5023 46.2144  10
   1  -4 -26 635.105 49.3090   4
  -4   1 -26 615.321 47.1358   4
  -1  -4  26 684.114 44.8076  11
 -26  -1   4 719.974 47.6186  10
  -2  -4  26 651.805 46.4352  11
   2  -4 -26 729.079 51.0612   4
  -4   2 -26 724.935 45.8714   4
  -3  -4  26 318.006 39.5837  11
 -26  -4   3 328.122 42.9749  10
 -26  -3   4 315.602 43.2833  10
   2  -5  26-50.2517 36.9001  11
 -26   2   5 25.7309 41.7186  10
 -26  -5  -2-36.3779 39.5083  10
   1  -5  26 1317.73 52.5391  11
 -26  -5  -1 1393.81 53.6978  10
 -26   1   5 1409.11 56.1625  10
   0  -5 -26 37.5044 45.8788   4
   0  -5  26 37.1113 39.1430  11
 -26   0   5 15.4348 42.6651  10
  -1  -5  26 1267.13 50.3923  11
   1  -5 -26 1263.05 54.4318   4
 -26  -2   5 7.29602 40.9990  10
 -26  -5   2 29.1619 43.1413  10
  -2  -5  26-9.98719 39.1194  11
   0   0   0    0.00    0.00   0

TITL PCN_250VT_2_373_00_auto in P-43n
REM P-43n (#218 in standard setting)
CELL 1.54184  21.882660  21.882660  21.882660  90.0000  90.0000  90.0000
ZERR   45.00   0.000263   0.000263   0.000263   0.0000   0.0000   0.0000
LATT -1
SYMM -x,-y, z
SYMM -x, y,-z
SYMM  x,-y,-z
SYMM  z, x, y
SYMM  z,-x,-y
SYMM -z,-x, y
SYMM -z, x,-y
SYMM  y, z, x
SYMM -y, z,-x
SYMM  y,-z,-x
SYMM -y,-z, x
SYMM  y+1/2, x+1/2, z+1/2
SYMM -y+1/2,-x+1/2, z+1/2
SYMM  y+1/2,-x+1/2,-z+1/2
SYMM -y+1/2, x+1/2,-z+1/2
SYMM  x+1/2, z+1/2, y+1/2
SYMM -x+1/2, z+1/2,-y+1/2
SYMM -x+1/2,-z+1/2, y+1/2
SYMM  x+1/2,-z+1/2,-y+1/2
SYMM  z+1/2, y+1/2, x+1/2
SYMM  z+1/2,-y+1/2,-x+1/2
SYMM -z+1/2, y+1/2,-x+1/2
SYMM -z+1/2,-y+1/2, x+1/2
SFAC C H N O
UNIT 495.00 450.00 45.00 45.00
REM  CrysAlisPro recorded range (K): Min=372.9; max=373.1; aver:373.0
TEMP 100
TREF
HKLF 4
END
;
_shelx_hkl_checksum              31815
_shelx_fab_file                  
;
-14 -16 -15 -1.7944 0.8576
-14 -16 -14 -0.3951 3.7878
-14 -15 -15 0.4343 -1.4690
-14 -14 -14 2.5494 1.5513
-13 -18 -13 2.0841 -0.3176
-13 -17 -15 1.3739 -1.9224
-13 -17 -14 1.6573 0.7907
-13 -16 -15 0.7876 -1.8280
-13 -16 -14 -0.5162 -0.4773
-13 -16 -13 5.1374 -0.4757
-13 -15 -14 -0.5729 2.2404
-13 -14 -13 1.3447 -2.4776
-12 -19 -13 0.5273 -1.5945
-12 -18 -14 2.3898 4.3805
-12 -18 -13 2.6933 -2.3201
-12 -18 -12 1.8752 0.3124
-12 -17 -15 -0.5333 2.5734
-12 -17 -14 -0.5530 -0.3051
-12 -17 -13 0.2022 0.9613
-12 -16 -16 0.4788 3.9416
-12 -16 -15 -1.5181 -0.2084
-12 -16 -14 -0.0809 0.3606
-12 -16 -13 0.5524 0.1779
-12 -16 -12 4.0023 -0.6777
-12 -15 -15 -1.6083 -2.5251
-12 -15 -14 0.1070 -0.6318
-12 -15 -13 -1.2255 -1.0971
-12 -14 -14 -3.6503 -2.7918
-12 -14 -13 1.0868 -0.0998
-12 -14 -12 0.3763 1.8086
-12 -13 -13 -1.6597 1.1547
-12 -12 -12 -1.0206 6.1975
-11 -20 -12 0.3834 -0.4279
-11 -20 -11 2.3392 3.6998
-11 -19 -14 1.7713 2.0640
-11 -19 -13 1.5723 -3.8088
-11 -19 -12 -1.9111 1.6000
-11 -18 -15 1.1420 2.8430
-11 -18 -14 0.9042 -2.8683
-11 -18 -13 -1.1696 0.8341
-11 -18 -12 0.6011 0.4025
-11 -18 -11 3.2257 -1.9132
-11 -17 -16 0.6863 -3.6053
-11 -17 -15 -1.5445 0.3334
-11 -17 -14 4.0513 1.4909
-11 -17 -13 -0.6591 1.1659
-11 -17 -12 0.7146 -0.0630
-11 -16 -15 -1.5533 -0.6817
-11 -16 -14 -0.0911 -0.0084
-11 -16 -13 1.9178 4.2417
-11 -16 -12 1.3784 1.1732
-11 -16 -11 -3.2227 1.1289
-11 -15 -14 -2.8120 2.0418
-11 -15 -13 -1.6955 0.7198
-11 -15 -12 0.1890 -0.5888
-11 -14 -13 1.4825 -0.9970
-11 -14 -12 0.1741 0.7670
-11 -14 -11 1.1701 -0.5079
-11 -13 -12 1.1336 -0.2688
-10 -21 -11 -1.7202 -0.9264
-10 -20 -13 -0.7175 1.4824
-10 -20 -12 1.1186 1.2274
-10 -20 -11 1.8154 0.3684
-10 -20 -10 0.7754 2.7385
-10 -19 -14 -1.2626 2.0733
-10 -19 -13 0.3663 -2.0350
-10 -19 -12 -1.7266 -2.2120
-10 -19 -11 1.5889 -2.2368
-10 -18 -16 2.1759 0.9655
-10 -18 -15 1.9979 0.2270
-10 -18 -14 -3.3093 -2.0815
-10 -18 -13 -0.6953 1.4230
-10 -18 -12 -1.0547 -1.9757
-10 -18 -11 2.0216 2.7840
-10 -18 -10 2.8122 -0.9221
-10 -17 -17 0.7868 0.5895
-10 -17 -16 -0.6020 -1.1887
-10 -17 -15 0.1842 3.5750
-10 -17 -14 -1.0287 -0.2203
-10 -17 -13 -6.2325 2.2314
-10 -17 -12 -3.4540 -0.3444
-10 -17 -11 -3.3867 0.8082
-10 -16 -16 0.7726 -0.3619
-10 -16 -15 3.0653 0.7712
-10 -16 -14 -4.6602 -9.5076
-10 -16 -13 -1.1324 -0.5927
-10 -16 -12 1.6872 -4.6437
-10 -16 -11 1.4929 -0.6343
-10 -16 -10 -2.9570 -4.1425
-10 -15 -15 -2.1646 0.6420
-10 -15 -14 2.1551 0.6814
-10 -15 -13 -1.8472 1.9262
-10 -15 -12 0.8631 0.8701
-10 -15 -11 -0.8057 2.1160
-10 -14 -14 -2.0806 -6.8529
-10 -14 -13 -1.1971 -2.7710
-10 -14 -12 2.8799 -1.7056
-10 -14 -11 -1.8330 0.7901
-10 -14 -10 -1.5027 -2.6273
-10 -13 -13 0.5884 -0.5443
-10 -13 -12 -0.9063 2.2026
-10 -13 -11 -1.1276 1.9793
-10 -12 -12 -1.9373 -1.2519
-10 -12 -11 -0.4721 3.0573
-10 -12 -10 -1.2722 2.0218
-10 -11 -11 -3.6704 0.3691
-9 -22 -10 -0.9330 -4.2697
-9 -22 -9 0.8011 1.3119
-9 -21 -12 0.9524 0.7925
-9 -21 -11 -0.5061 0.0745
-9 -21 -10 -0.0240 -1.4677
-9 -20 -14 0.1612 3.3512
-9 -20 -13 2.7221 0.8359
-9 -20 -12 -1.9033 -0.5412
-9 -20 -11 3.3764 -0.7332
-9 -20 -10 -3.0512 -0.8294
-9 -20 -9 3.2218 -3.4135
-9 -19 -15 -0.8115 0.4588
-9 -19 -14 -0.3254 0.4811
-9 -19 -13 0.7661 0.5792
-9 -19 -12 -0.0328 -1.3241
-9 -19 -11 -1.6223 -0.1672
-9 -19 -10 4.5243 -8.3435
-9 -18 -16 2.3605 3.2801
-9 -18 -15 -2.8534 -0.6996
-9 -18 -14 0.4687 -1.1075
-9 -18 -13 -2.7683 -0.1194
-9 -18 -12 -1.4622 -0.0430
-9 -18 -11 -0.4564 -3.0539
-9 -18 -10 3.0355 1.6733
-9 -18 -9 -0.3849 2.4874
-9 -17 -16 -0.8206 -1.3094
-9 -17 -15 5.4719 1.5954
-9 -17 -14 -0.2841 1.4587
-9 -17 -13 -1.4249 0.7409
-9 -17 -12 0.0564 -1.9293
-9 -17 -11 2.4693 -2.0380
-9 -17 -10 1.1496 -6.9548
-9 -16 -15 0.2719 -0.8947
-9 -16 -14 -1.7270 -0.0592
-9 -16 -13 -1.6955 6.5401
-9 -16 -12 -1.6975 -0.8404
-9 -16 -11 -8.8191 -2.4461
-9 -16 -10 2.6918 0.6912
-9 -16 -9 -4.7005 -1.3583
-9 -15 -14 0.1070 4.0091
-9 -15 -13 0.2256 0.9934
-9 -15 -12 -1.9302 3.4889
-9 -15 -11 -0.5530 -2.3798
-9 -15 -10 -0.4833 2.2256
-9 -14 -13 -2.3647 -0.2752
-9 -14 -12 -1.4564 -1.9622
-9 -14 -11 -2.9469 -2.2361
-9 -14 -10 4.3703 3.4081
-9 -14 -9 -2.4409 -4.6766
-9 -13 -12 -1.4193 -2.2930
-9 -13 -11 1.7303 -2.7496
-9 -13 -10 -0.3224 3.2227
-9 -12 -11 -0.5291 -4.1222
-9 -12 -10 4.3753 1.3378
-9 -12 -9 1.0143 1.2652
-9 -11 -10 -3.0537 -0.4820
-9 -10 -9 4.2138 3.9708
-8 -23 -9 0.8964 -0.0770
-8 -22 -11 0.0519 0.7308
-8 -22 -10 0.8476 0.9634
-8 -22 -9 -3.7658 0.2202
-8 -22 -8 0.6268 -3.7968
-8 -21 -13 1.2436 -1.6700
-8 -21 -12 1.0542 4.0575
-8 -21 -11 0.5543 -2.1212
-8 -21 -10 -2.5076 -0.0273
-8 -21 -9 -1.6793 -1.7876
-8 -20 -14 0.3304 -0.7647
-8 -20 -13 -1.0377 2.5049
-8 -20 -12 1.1646 -1.2694
-8 -20 -11 0.8858 -0.1008
-8 -20 -10 -1.6697 2.5122
-8 -20 -9 0.1467 -1.2697
-8 -20 -8 0.9766 -1.6987
-8 -19 -16 -2.0414 -2.3141
-8 -19 -15 0.5587 -3.3502
-8 -19 -14 -2.0826 3.0124
-8 -19 -13 0.1305 -1.1390
-8 -19 -12 -0.4662 0.6593
-8 -19 -11 1.0696 1.5106
-8 -19 -10 -0.7843 -2.4427
-8 -19 -9 -1.0654 -5.4098
-8 -18 -17 2.7428 4.2541
-8 -18 -16 -1.7352 1.7948
-8 -18 -15 2.3366 4.3474
-8 -18 -14 -3.7834 -0.8321
-8 -18 -13 -0.6398 0.4259
-8 -18 -12 -0.2161 1.0803
-8 -18 -11 2.2151 5.3849
-8 -18 -10 -2.2275 -0.8154
-8 -18 -9 5.1616 -2.6341
-8 -18 -8 0.5764 -3.3178
-8 -17 -17 4.8604 2.7431
-8 -17 -16 -1.8012 -4.9457
-8 -17 -15 -0.3621 0.2384
-8 -17 -14 0.0460 -3.1603
-8 -17 -13 -4.6583 0.1589
-8 -17 -12 -2.8675 -0.4811
-8 -17 -11 -2.9636 0.5227
-8 -17 -10 1.5631 -0.8009
-8 -17 -9 -2.5879 0.0378
-8 -16 -16 -7.6434 6.1310
-8 -16 -15 2.8226 6.5551
-8 -16 -14 -6.5968 -3.9416
-8 -16 -13 -1.2995 0.2434
-8 -16 -12 4.4076 -5.2943
-8 -16 -11 4.9748 1.7556
-8 -16 -10 3.1046 -0.3330
-8 -16 -9 6.9461 -1.8467
-8 -16 -8 6.1054 5.6740
-8 -15 -15 -3.5753 -0.3821
-8 -15 -14 -0.7432 -3.7224
-8 -15 -13 0.1605 -4.9613
-8 -15 -12 0.2335 1.8150
-8 -15 -11 6.1369 -3.5006
-8 -15 -10 4.0998 2.6067
-8 -15 -9 1.3474 2.7649
-8 -14 -14 -0.0870 -2.0598
-8 -14 -13 -0.1026 -0.6374
-8 -14 -12 3.3034 -0.3507
-8 -14 -11 -0.5519 -0.1536
-8 -14 -10 2.8477 3.1396
-8 -14 -9 -0.0244 -2.2433
-8 -14 -8 -2.8328 -4.7781
-8 -13 -13 0.9640 -5.3788
-8 -13 -12 0.9968 2.2508
-8 -13 -11 -3.0537 0.7867
-8 -13 -10 0.6082 -1.5264
-8 -13 -9 -1.1088 3.3665
-8 -12 -12 -7.1947 4.0112
-8 -12 -11 -0.7685 2.9503
-8 -12 -10 0.2686 2.7032
-8 -12 -9 1.7015 -0.6579
-8 -12 -8 -2.1330 -3.6907
-8 -11 -11 4.0898 -1.2942
-8 -11 -10 -4.3401 -3.9516
-8 -11 -9 0.4394 1.1818
-8 -10 -10 2.6761 -3.2571
-8 -10 -9 0.0076 -10.2544
-8 -10 -8 -1.3252 1.2567
-8 -9 -9 0.9463 -2.1505
-8 -8 -8 2.0710 7.0520
-7 -24 -7 -0.9850 -0.0466
-7 -23 -10 1.8904 -1.8931
-7 -23 -9 0.8871 0.0741
-7 -23 -8 -0.5518 1.5983
-7 -22 -12 1.5031 -2.3876
-7 -22 -11 -0.3540 -0.8002
-7 -22 -10 1.2284 -2.3156
-7 -22 -9 1.3349 -0.2418
-7 -22 -8 0.1778 1.7827
-7 -22 -7 -2.4971 0.6185
-7 -21 -13 -0.5637 0.5748
-7 -21 -12 0.2820 0.2362
-7 -21 -11 -0.6996 0.7632
-7 -21 -10 0.8854 2.3619
-7 -21 -9 -0.0885 0.6934
-7 -21 -8 -1.3969 -2.9456
-7 -20 -15 -1.2121 0.1102
-7 -20 -14 0.7698 1.1193
-7 -20 -13 -0.5077 0.6701
-7 -20 -12 1.2393 -0.7277
-7 -20 -11 0.7905 -0.1374
-7 -20 -10 -0.1513 0.4516
-7 -20 -9 0.1689 0.0732
-7 -20 -8 -2.7398 -2.9363
-7 -20 -7 -0.9635 1.2732
-7 -19 -16 -1.4246 3.4411
-7 -19 -15 -1.1608 -0.2758
-7 -19 -14 -2.2519 1.7511
-7 -19 -13 0.5270 -0.6283
-7 -19 -12 -0.4371 0.8124
-7 -19 -11 0.6337 2.9911
-7 -19 -10 -2.6232 1.2358
-7 -19 -9 0.8260 0.1785
-7 -19 -8 -2.7112 -5.4476
-7 -18 -17 1.8119 -0.9166
-7 -18 -16 1.8343 2.6895
-7 -18 -15 1.1147 -1.9044
-7 -18 -14 0.4031 0.6995
-7 -18 -13 1.0611 2.8379
-7 -18 -12 0.4980 -0.1391
-7 -18 -11 1.0090 -2.1829
-7 -18 -10 0.5855 -0.3176
-7 -18 -9 3.9337 2.2092
-7 -18 -8 -2.9548 -2.7957
-7 -18 -7 -0.8294 3.2515
-7 -17 -16 -5.0558 2.4303
-7 -17 -15 0.6124 1.0840
-7 -17 -14 -3.4478 1.4426
-7 -17 -13 -0.5732 1.3874
-7 -17 -12 -3.3450 1.8966
-7 -17 -11 3.1550 1.6796
-7 -17 -10 0.4735 -3.7770
-7 -17 -9 4.7661 4.2537
-7 -17 -8 -1.1666 -0.5638
-7 -16 -15 0.0874 1.5528
-7 -16 -14 -3.2843 3.3597
-7 -16 -13 0.6473 4.5201
-7 -16 -12 0.3824 1.2418
-7 -16 -11 2.0538 -2.5840
-7 -16 -10 3.5223 -0.2532
-7 -16 -9 5.9256 -1.7006
-7 -16 -8 4.0846 -0.0161
-7 -16 -7 1.2630 -2.4039
-7 -15 -14 -0.6997 1.7400
-7 -15 -13 2.1941 2.3352
-7 -15 -12 -2.8325 2.4484
-7 -15 -11 -0.1840 0.1391
-7 -15 -10 1.4283 -3.5376
-7 -15 -9 -3.9343 -0.5694
-7 -15 -8 -3.2858 -0.2895
-7 -14 -13 -0.5225 1.7741
-7 -14 -12 -2.5908 -4.6063
-7 -14 -11 3.4993 4.2257
-7 -14 -10 -1.3308 1.2520
-7 -14 -9 0.7468 -1.8170
-7 -14 -8 4.5281 2.0011
-7 -14 -7 2.8087 0.5675
-7 -13 -12 0.5646 3.3722
-7 -13 -11 3.8354 0.2022
-7 -13 -10 1.9511 0.1545
-7 -13 -9 1.8806 0.8607
-7 -13 -8 2.0835 -2.1664
-7 -12 -11 -3.6900 4.6896
-7 -12 -10 2.5561 -4.3121
-7 -12 -9 -4.6979 -0.1358
-7 -12 -8 10.0309 -3.1327
-7 -12 -7 -0.0953 -0.1530
-7 -11 -10 -2.9546 -0.9118
-7 -11 -9 2.5730 5.1390
-7 -11 -8 -5.7325 -0.7318
-7 -10 -9 0.9428 -0.0113
-7 -10 -8 17.1319 8.2119
-7 -10 -7 -2.1100 2.3783
-7 -9 -8 -1.2663 -3.7675
-7 -8 -7 0.9111 5.1301
-6 -24 -8 -0.1183 1.2569
-6 -24 -7 0.9046 2.4724
-6 -24 -6 0.4803 0.4677
-6 -23 -10 1.1601 -0.4455
-6 -23 -9 -0.0445 -0.8325
-6 -23 -8 1.8809 1.9343
-6 -23 -7 -0.2631 -0.2206
-6 -22 -12 0.4335 -0.3621
-6 -22 -11 1.1715 -0.6427
-6 -22 -10 -1.9747 -0.8535
-6 -22 -9 -0.8079 1.4121
-6 -22 -8 -0.9747 1.3412
-6 -22 -7 1.0089 -2.2014
-6 -22 -6 0.2629 3.4651
-6 -21 -14 -1.0170 -1.0125
-6 -21 -13 -3.2453 -2.4435
-6 -21 -12 -1.2554 -0.4321
-6 -21 -11 0.4867 0.0823
-6 -21 -10 3.0859 -0.4595
-6 -21 -9 -2.1639 0.3289
-6 -21 -8 0.6331 -0.3140
-6 -21 -7 1.1737 -0.3511
-6 -20 -15 -2.4163 -3.3222
-6 -20 -14 0.1172 0.9225
-6 -20 -13 -1.8831 1.5175
-6 -20 -12 -0.5612 -0.4458
-6 -20 -11 -0.3527 1.9226
-6 -20 -10 -0.7902 2.2239
-6 -20 -9 -0.1483 0.6860
-6 -20 -8 0.6351 2.6230
-6 -20 -7 -0.6244 0.7319
-6 -20 -6 1.3822 -2.9352
-6 -19 -16 -1.2883 -1.1574
-6 -19 -15 1.2758 2.4985
-6 -19 -14 2.4385 -0.2511
-6 -19 -13 -0.8135 0.8257
-6 -19 -12 -2.5123 2.0789
-6 -19 -11 2.8659 3.5435
-6 -19 -10 -0.3217 0.4233
-6 -19 -9 4.2885 0.5466
-6 -19 -8 0.1801 1.5482
-6 -19 -7 2.3537 -4.6212
-6 -18 -17 -1.2253 2.0304
-6 -18 -16 -0.5601 3.0217
-6 -18 -15 -1.3980 -1.1320
-6 -18 -14 0.3315 3.2428
-6 -18 -13 5.5269 -0.5933
-6 -18 -12 -1.6248 1.9251
-6 -18 -11 -0.8692 2.1786
-6 -18 -10 -1.3209 1.3113
-6 -18 -9 -2.0414 -1.4058
-6 -18 -8 -3.7517 -0.0318
-6 -18 -7 -0.5643 -4.9381
-6 -18 -6 -9.9075 -3.3084
-6 -17 -17 -0.9722 0.9145
-6 -17 -16 -4.6705 1.4226
-6 -17 -15 1.8350 0.8448
-6 -17 -14 4.7432 2.7667
-6 -17 -13 3.1037 1.5041
-6 -17 -12 0.8543 2.5374
-6 -17 -11 2.0412 0.1194
-6 -17 -10 0.3586 -1.5648
-6 -17 -9 4.7113 -1.2043
-6 -17 -8 4.3958 2.7298
-6 -17 -7 -1.7334 0.7781
-6 -16 -16 -3.3671 1.6290
-6 -16 -15 2.7284 1.5246
-6 -16 -14 -4.3150 1.4178
-6 -16 -13 0.6579 2.7184
-6 -16 -12 0.4365 -2.8035
-6 -16 -11 -2.4824 -1.7722
-6 -16 -10 -1.9559 4.1379
-6 -16 -9 -5.8585 -1.8566
-6 -16 -8 -2.8949 6.9710
-6 -16 -7 -4.0894 -1.7890
-6 -16 -6 -9.9903 1.6735
-6 -15 -15 -0.8410 -0.3662
-6 -15 -14 0.5208 -3.2723
-6 -15 -13 4.5074 -2.8241
-6 -15 -12 -1.8304 -3.3142
-6 -15 -11 3.1503 -6.7570
-6 -15 -10 4.9569 -1.7342
-6 -15 -9 3.6024 -3.1712
-6 -15 -8 1.6040 8.5734
-6 -15 -7 -0.4651 3.9031
-6 -14 -14 -5.2498 4.9733
-6 -14 -13 -0.5525 1.4239
-6 -14 -12 -1.2701 -4.3287
-6 -14 -11 2.0792 -2.0065
-6 -14 -10 3.3322 2.7663
-6 -14 -9 -0.2336 -1.1363
-6 -14 -8 -0.5617 1.2900
-6 -14 -7 2.2293 -0.0407
-6 -14 -6 -2.3465 -2.1360
-6 -13 -13 1.8583 -0.9120
-6 -13 -12 -2.0579 -0.6390
-6 -13 -11 -2.8288 -1.0948
-6 -13 -10 -0.3873 1.0594
-6 -13 -9 -0.9897 -0.0133
-6 -13 -8 -9.4277 -0.4361
-6 -13 -7 -0.2108 0.2133
-6 -12 -12 -0.7286 0.9397
-6 -12 -11 -0.7350 -3.3591
-6 -12 -10 4.9145 2.7668
-6 -12 -9 -1.7754 -1.5926
-6 -12 -8 0.6250 -1.1835
-6 -12 -7 -0.9464 1.6113
-6 -12 -6 -0.0899 0.6152
-6 -11 -11 5.4389 1.8542
-6 -11 -10 3.5417 5.4664
-6 -11 -9 -3.8851 1.5142
-6 -11 -8 0.7705 -6.9221
-6 -11 -7 -0.5082 2.4037
-6 -10 -10 -4.0598 -5.5420
-6 -10 -9 -11.3653 -9.7121
-6 -10 -8 -0.6734 -1.8073
-6 -10 -7 -12.8695 -2.3776
-6 -10 -6 0.1806 -3.1857
-6 -9 -9 -7.8317 4.3227
-6 -9 -8 1.6655 -8.9680
-6 -9 -7 -0.1238 1.2342
-6 -8 -8 1.9403 -0.5892
-6 -8 -7 -12.5477 1.7414
-6 -8 -6 -3.1599 -0.1134
-6 -7 -7 5.5925 3.5482
-5 -24 -9 -1.3998 2.3589
-5 -24 -8 3.6699 -1.8614
-5 -24 -7 1.2402 -0.0224
-5 -24 -6 -1.7038 1.3252
-5 -24 -5 -0.9419 1.4769
-5 -23 -11 0.5224 -0.4521
-5 -23 -10 -1.2830 -2.7783
-5 -23 -9 0.3035 0.5122
-5 -23 -8 0.1868 -1.9762
-5 -23 -7 -0.7005 -2.7484
-5 -23 -6 -1.8323 1.1929
-5 -22 -13 -0.2381 0.8579
-5 -22 -12 -2.0091 -2.4503
-5 -22 -11 -0.5679 0.3490
-5 -22 -10 0.6686 1.4364
-5 -22 -9 0.6998 -2.6778
-5 -22 -8 4.4835 3.5524
-5 -22 -7 0.9772 -0.0155
-5 -22 -6 -3.7980 5.4969
-5 -22 -5 -5.1902 -0.0804
-5 -21 -14 -1.1845 -0.4326
-5 -21 -13 -2.0157 -0.8348
-5 -21 -12 1.9632 0.6829
-5 -21 -11 -2.8326 1.7566
-5 -21 -10 0.1180 -1.6905
-5 -21 -9 -0.2124 1.1327
-5 -21 -8 0.6069 0.6794
-5 -21 -7 0.4597 1.4867
-5 -21 -6 2.7500 1.3896
-5 -20 -16 3.5671 -0.1624
-5 -20 -15 -4.5066 -2.6778
-5 -20 -14 1.5780 -1.4444
-5 -20 -13 -0.8791 1.1398
-5 -20 -12 1.0091 -0.6836
-5 -20 -11 -0.0738 -0.4742
-5 -20 -10 -1.5584 5.0887
-5 -20 -9 -0.5555 -2.9313
-5 -20 -8 -0.4267 -2.5103
-5 -20 -7 1.8109 -0.7212
-5 -20 -6 0.4919 -0.1259
-5 -20 -5 -5.0667 -3.1274
-5 -19 -17 -0.7023 0.0367
-5 -19 -16 -0.6793 3.2706
-5 -19 -15 0.2080 0.0030
-5 -19 -14 1.1693 -1.7598
-5 -19 -13 -0.5741 0.2815
-5 -19 -12 3.6344 -1.0484
-5 -19 -11 0.9312 -0.0055
-5 -19 -10 -0.7187 3.7978
-5 -19 -9 -0.9511 -0.7887
-5 -19 -8 -5.1438 4.7704
-5 -19 -7 0.1263 -3.1272
-5 -19 -6 0.2147 -2.4634
-5 -18 -17 -0.6357 0.3461
-5 -18 -16 0.0192 -1.5858
-5 -18 -15 -0.2456 -0.6675
-5 -18 -14 -3.2078 1.6653
-5 -18 -13 -1.9992 -0.5646
-5 -18 -12 1.1780 0.2899
-5 -18 -11 0.5704 1.1226
-5 -18 -10 -6.0560 2.3038
-5 -18 -9 4.9267 4.3670
-5 -18 -8 -0.2902 1.1436
-5 -18 -7 1.0840 -1.1338
-5 -18 -6 2.4670 0.0105
-5 -18 -5 -2.1753 2.2056
-5 -17 -16 -0.4354 2.3412
-5 -17 -15 1.6323 -1.7717
-5 -17 -14 1.7708 -0.0920
-5 -17 -13 1.4332 1.2291
-5 -17 -12 -1.6671 2.5313
-5 -17 -11 -2.2829 -3.5023
-5 -17 -10 3.1179 0.7022
-5 -17 -9 1.2077 5.4702
-5 -17 -8 -2.0114 7.2605
-5 -17 -7 1.2725 0.4398
-5 -17 -6 -1.0904 -1.2200
-5 -16 -15 0.0175 -2.9841
-5 -16 -14 -1.8890 0.7450
-5 -16 -13 -1.5303 -1.9007
-5 -16 -12 0.9553 1.3158
-5 -16 -11 -4.8071 -0.4206
-5 -16 -10 -4.1829 0.7758
-5 -16 -9 -3.5732 5.3437
-5 -16 -8 -1.4985 1.4183
-5 -16 -7 -1.3260 -0.7384
-5 -16 -6 -2.4796 -0.4779
-5 -16 -5 -0.7224 3.2747
-5 -15 -14 0.4054 -0.6141
-5 -15 -13 0.2775 -0.9052
-5 -15 -12 -4.1614 2.8851
-5 -15 -11 -4.1077 -5.1468
-5 -15 -10 -2.1781 -5.5601
-5 -15 -9 -5.4225 5.3022
-5 -15 -8 0.0812 -0.5497
-5 -15 -7 -5.4868 3.5634
-5 -15 -6 1.9708 -0.3726
-5 -14 -13 0.9827 1.1216
-5 -14 -12 3.8594 -4.7265
-5 -14 -11 -0.9568 0.4346
-5 -14 -10 0.9083 -2.7485
-5 -14 -9 -2.8855 -0.0847
-5 -14 -8 1.5255 -3.7647
-5 -14 -7 -1.2919 -1.2949
-5 -14 -6 -3.1589 -3.4046
-5 -14 -5 -4.8199 -1.6460
-5 -13 -12 2.2906 -2.6046
-5 -13 -11 0.7846 -0.2345
-5 -13 -10 0.7290 -1.7154
-5 -13 -9 -0.7859 3.8985
-5 -13 -8 0.0462 1.1866
-5 -13 -7 -5.5652 1.7284
-5 -13 -6 0.0433 -3.4789
-5 -12 -11 4.5653 1.5050
-5 -12 -10 3.7313 -3.4034
-5 -12 -9 2.4254 0.8483
-5 -12 -8 3.6630 -0.4844
-5 -12 -7 -0.3953 -2.1447
-5 -12 -6 3.3869 -3.1603
-5 -12 -5 -4.6646 -0.8165
-5 -11 -10 0.4880 3.4063
-5 -11 -9 8.1325 6.9603
-5 -11 -8 -0.1718 2.2573
-5 -11 -7 -0.0527 -8.2771
-5 -11 -6 4.2495 0.2803
-5 -10 -9 -0.8243 -0.5956
-5 -10 -8 4.3102 0.4648
-5 -10 -7 0.2563 -6.5381
-5 -10 -6 -5.3465 -8.4107
-5 -10 -5 -2.8735 0.9137
-5 -9 -8 -0.0215 -2.9591
-5 -9 -7 0.3239 -3.0604
-5 -9 -6 -1.9639 -0.1611
-5 -8 -7 -5.4560 -2.0575
-5 -8 -6 0.2909 3.2221
-5 -8 -5 1.3858 3.3283
-5 -7 -6 3.0070 -8.5752
-5 -6 -5 8.8213 -2.9638
-4 -25 -6 1.2995 -0.7110
-4 -25 -5 -1.2022 -0.5887
-4 -24 -9 0.4002 0.9004
-4 -24 -8 1.0363 -0.7520
-4 -24 -7 -0.9119 0.9255
-4 -24 -6 2.0584 -1.0833
-4 -24 -5 -0.7860 -1.9270
-4 -24 -4 1.0199 1.1111
-4 -23 -11 -0.6874 0.3211
-4 -23 -10 -2.7794 -2.3952
-4 -23 -9 -2.5243 0.0174
-4 -23 -8 -1.0124 -0.9807
-4 -23 -7 2.5985 -4.2553
-4 -23 -6 2.1060 -0.9220
-4 -23 -5 -1.5416 -0.9461
-4 -22 -13 3.1746 -3.2673
-4 -22 -12 3.4273 0.7028
-4 -22 -11 1.2040 -1.9799
-4 -22 -10 3.1223 -0.4028
-4 -22 -9 3.3723 -0.7303
-4 -22 -8 0.8163 1.7168
-4 -22 -7 0.2076 -1.2675
-4 -22 -6 -0.1742 -0.1468
-4 -22 -5 3.8486 -1.5918
-4 -22 -4 0.0162 0.3030
-4 -21 -15 -3.4289 0.3506
-4 -21 -14 -1.3241 -2.7521
-4 -21 -13 -0.9280 -0.7833
-4 -21 -12 2.1328 -1.0225
-4 -21 -11 3.3197 1.2244
-4 -21 -10 2.0018 2.5829
-4 -21 -9 0.2398 0.8050
-4 -21 -8 -1.3454 -1.9051
-4 -21 -7 -0.0807 3.4446
-4 -21 -6 -1.7181 -1.0866
-4 -21 -5 -3.5179 -2.1933
-4 -20 -16 -0.1724 -1.6759
-4 -20 -15 -4.3025 -0.5474
-4 -20 -14 -1.5953 0.3017
-4 -20 -13 -1.5163 0.6521
-4 -20 -12 -0.8988 0.2876
-4 -20 -11 0.2263 -0.3191
-4 -20 -10 -0.2246 -2.9416
-4 -20 -9 3.3565 -2.1266
-4 -20 -8 0.7622 -0.4216
-4 -20 -7 -2.1558 0.7034
-4 -20 -6 -0.2483 0.7946
-4 -20 -5 -0.9159 0.0914
-4 -20 -4 -1.9086 -0.5366
-4 -19 -17 -2.0410 2.4673
-4 -19 -16 0.2978 1.5066
-4 -19 -15 -2.3761 5.5673
-4 -19 -14 4.0154 -0.5995
-4 -19 -13 0.9504 -2.4146
-4 -19 -12 2.1224 2.5770
-4 -19 -11 2.3453 -0.4363
-4 -19 -10 -0.3504 2.4645
-4 -19 -9 2.5152 -3.8716
-4 -19 -8 0.8998 2.0050
-4 -19 -7 3.5009 1.0456
-4 -19 -6 0.1569 1.3164
-4 -19 -5 -0.1369 -2.0742
-4 -18 -18 -2.8399 -2.0641
-4 -18 -17 -0.4893 -4.2266
-4 -18 -16 0.7073 -3.2621
-4 -18 -15 1.1205 1.9437
-4 -18 -14 -0.1827 -0.7768
-4 -18 -13 2.0322 3.2239
-4 -18 -12 2.9585 -2.9167
-4 -18 -11 -0.8982 3.4272
-4 -18 -10 1.3931 0.7697
-4 -18 -9 3.5102 3.0610
-4 -18 -8 0.6695 1.3681
-4 -18 -7 3.7911 2.4928
-4 -18 -6 0.5394 4.7668
-4 -18 -5 2.4642 0.6666
-4 -18 -4 -3.1960 -0.3163
-4 -17 -17 0.4491 -0.6605
-4 -17 -16 -1.0809 9.2906
-4 -17 -15 3.5511 -2.8623
-4 -17 -14 6.4528 0.8216
-4 -17 -13 5.4695 -6.3223
-4 -17 -12 2.4246 -2.7628
-4 -17 -11 1.2415 -1.1424
-4 -17 -10 -3.5527 -0.1101
-4 -17 -9 -0.5201 -2.2872
-4 -17 -8 -3.5097 0.3381
-4 -17 -7 2.2144 -0.1505
-4 -17 -6 -5.5669 0.6211
-4 -17 -5 -0.0416 -5.3453
-4 -16 -16 1.1921 -1.0394
-4 -16 -15 4.3077 -3.7229
-4 -16 -14 0.5808 -0.5175
-4 -16 -13 -0.9477 0.9188
-4 -16 -12 2.1577 -2.0157
-4 -16 -11 -4.2257 -0.7338
-4 -16 -10 -3.0064 5.2126
-4 -16 -9 2.2835 1.3826
-4 -16 -8 2.4400 6.0918
-4 -16 -7 1.1692 3.5385
-4 -16 -6 -0.1003 2.6543
-4 -16 -5 -4.0474 1.1799
-4 -16 -4 -1.3790 1.5715
-4 -15 -15 1.7084 -0.2697
-4 -15 -14 6.1978 3.5187
-4 -15 -13 -1.2623 -0.2926
-4 -15 -12 0.3947 -2.8281
-4 -15 -11 -11.0026 2.7384
-4 -15 -10 -0.7323 -1.2778
-4 -15 -9 -2.7322 -2.8127
-4 -15 -8 -2.1202 0.1912
-4 -15 -7 3.6801 2.7024
-4 -15 -6 -0.8736 -2.0115
-4 -15 -5 0.2204 0.6345
-4 -14 -14 3.4980 2.0689
-4 -14 -13 -6.9001 -2.4443
-4 -14 -12 -1.7047 -3.6061
-4 -14 -11 -2.6125 -1.0864
-4 -14 -10 -1.5006 -3.2535
-4 -14 -9 -0.3537 -2.4394
-4 -14 -8 2.3824 -0.6832
-4 -14 -7 3.5795 1.4517
-4 -14 -6 -1.0438 -2.6210
-4 -14 -5 1.7242 -1.4036
-4 -14 -4 -0.7399 3.6089
-4 -13 -13 -1.4798 -2.7529
-4 -13 -12 4.2691 0.5363
-4 -13 -11 -1.0468 0.1423
-4 -13 -10 4.5289 2.4255
-4 -13 -9 4.8905 2.0155
-4 -13 -8 -6.0930 -5.9456
-4 -13 -7 -4.3871 -0.7421
-4 -13 -6 4.2217 9.7422
-4 -13 -5 -5.2183 -2.4184
-4 -12 -12 0.5881 2.4747
-4 -12 -11 4.0635 1.7490
-4 -12 -10 0.9119 -0.5323
-4 -12 -9 -3.7008 1.5522
-4 -12 -8 1.2129 0.0478
-4 -12 -7 -0.2643 -4.8477
-4 -12 -6 -0.0004 0.2262
-4 -12 -5 -2.8809 -10.5059
-4 -12 -4 -2.1869 -2.8808
-4 -11 -11 -0.1180 0.3567
-4 -11 -10 0.8625 4.2000
-4 -11 -9 -1.6553 0.0014
-4 -11 -8 -1.2449 -1.7610
-4 -11 -7 -2.7897 2.0769
-4 -11 -6 -0.3372 -0.5612
-4 -11 -5 -0.0184 3.8524
-4 -10 -10 -4.5022 -0.6221
-4 -10 -9 -8.6759 0.3727
-4 -10 -8 8.3832 4.5252
-4 -10 -7 -1.7081 0.8713
-4 -10 -6 5.6308 1.7966
-4 -10 -5 5.6195 -1.7115
-4 -10 -4 5.2520 3.1857
-4 -9 -9 -0.9879 -3.2333
-4 -9 -8 5.7307 0.5249
-4 -9 -7 -3.0007 -2.8299
-4 -9 -6 -4.3728 0.4317
-4 -9 -5 3.9334 4.1744
-4 -8 -8 -4.7193 -8.8553
-4 -8 -7 -3.8107 -0.3771
-4 -8 -6 0.5365 2.4154
-4 -8 -5 4.9545 -4.6048
-4 -8 -4 -3.3295 0.0473
-4 -7 -7 2.6291 -1.3350
-4 -7 -6 -3.0614 -2.8413
-4 -7 -5 13.5500 -4.3389
-4 -6 -6 3.2296 -4.6866
-4 -6 -5 -1.0284 -0.2331
-4 -6 -4 -2.9785 -0.6636
-4 -5 -5 4.4668 2.6906
-4 -4 -4 -21.4996 -3.1754
-3 -25 -7 -0.6541 -2.3124
-3 -25 -6 1.5994 -0.6887
-3 -25 -5 0.3199 0.9494
-3 -25 -4 1.2652 -0.7128
-3 -24 -9 -1.2686 -0.6497
-3 -24 -8 -2.0270 0.3542
-3 -24 -7 -0.4295 0.4225
-3 -24 -6 -2.8566 -0.9046
-3 -24 -5 1.3693 -0.3521
-3 -24 -4 2.4889 -0.7801
-3 -24 -3 1.1986 -2.3462
-3 -23 -12 0.9223 0.2627
-3 -23 -11 0.9347 0.8009
-3 -23 -10 2.7195 -0.3848
-3 -23 -9 0.1119 0.8304
-3 -23 -8 1.4801 -1.7824
-3 -23 -7 -0.5580 -1.8374
-3 -23 -6 1.0331 2.1762
-3 -23 -5 0.1437 3.5787
-3 -23 -4 1.1994 0.4484
-3 -22 -13 -0.0528 1.2007
-3 -22 -12 -1.4521 -0.0273
-3 -22 -11 3.6788 -1.2067
-3 -22 -10 -0.4278 -1.0667
-3 -22 -9 0.7208 -0.7332
-3 -22 -8 -1.3052 0.6955
-3 -22 -7 -0.3199 1.4860
-3 -22 -6 -2.7517 1.6689
-3 -22 -5 1.2681 0.6919
-3 -22 -4 -1.8477 -0.6597
-3 -22 -3 -0.0425 -2.0313
-3 -21 -15 -0.4168 -2.0815
-3 -21 -14 -0.0547 1.1679
-3 -21 -13 1.0819 0.8693
-3 -21 -12 1.8638 1.8797
-3 -21 -11 2.9116 -1.2080
-3 -21 -10 0.6466 -1.2695
-3 -21 -9 -1.1349 -1.5593
-3 -21 -8 -1.6114 -3.8274
-3 -21 -7 -0.7641 -1.4134
-3 -21 -6 1.2438 -1.8293
-3 -21 -5 -1.7087 2.4799
-3 -21 -4 1.7637 1.6550
-3 -20 -16 -2.4147 -0.1867
-3 -20 -15 -2.7517 -1.1347
-3 -20 -14 0.3649 0.4785
-3 -20 -13 3.8992 0.0061
-3 -20 -12 -0.3902 -1.2712
-3 -20 -11 1.5780 -3.5876
-3 -20 -10 -1.2554 -0.3210
-3 -20 -9 -2.2444 -3.2748
-3 -20 -8 -0.5218 0.5079
-3 -20 -7 5.2695 2.2372
-3 -20 -6 0.8652 -4.5663
-3 -20 -5 1.2214 4.2444
-3 -20 -4 1.2113 1.6024
-3 -20 -3 -3.5003 2.5751
-3 -19 -17 1.1682 1.7743
-3 -19 -16 -3.0881 -2.4337
-3 -19 -15 -1.1745 2.6001
-3 -19 -14 -1.6444 -4.8576
-3 -19 -13 -1.8195 3.2115
-3 -19 -12 2.3817 -1.0396
-3 -19 -11 1.9319 -1.9139
-3 -19 -10 -2.1334 1.0130
-3 -19 -9 -2.6321 1.5880
-3 -19 -8 0.3401 -4.6956
-3 -19 -7 0.2434 0.2426
-3 -19 -6 1.0995 -1.4275
-3 -19 -5 -1.7821 1.7349
-3 -19 -4 -1.8730 2.1593
-3 -18 -17 3.3619 -1.2739
-3 -18 -16 1.8928 -1.8538
-3 -18 -15 1.5568 -1.7920
-3 -18 -14 0.3684 -1.0792
-3 -18 -13 1.8591 -4.2976
-3 -18 -12 -0.3406 -0.6182
-3 -18 -11 0.9283 1.3054
-3 -18 -10 2.9793 0.3709
-3 -18 -9 -3.2369 5.3659
-3 -18 -8 2.1742 2.8213
-3 -18 -7 5.9024 0.2961
-3 -18 -6 2.3372 -1.7790
-3 -18 -5 2.0876 3.2654
-3 -18 -4 0.0592 -2.6168
-3 -18 -3 -0.8931 0.5737
-3 -17 -16 -0.7504 0.1086
-3 -17 -15 -0.0867 -1.3440
-3 -17 -14 -1.9891 -0.7005
-3 -17 -13 -1.6382 -0.0905
-3 -17 -12 2.3135 1.2038
-3 -17 -11 1.3178 1.5632
-3 -17 -10 -3.5095 1.5828
-3 -17 -9 6.5439 1.6110
-3 -17 -8 -7.2754 0.7804
-3 -17 -7 3.7697 -2.1259
-3 -17 -6 -1.4540 1.3262
-3 -17 -5 5.4154 3.1603
-3 -17 -4 -2.4519 -2.3702
-3 -16 -15 -0.6885 -1.8363
-3 -16 -14 0.3490 -2.9471
-3 -16 -13 -2.9651 -1.6623
-3 -16 -12 -1.8936 0.1693
-3 -16 -11 4.4401 -0.1339
-3 -16 -10 4.8007 -1.4031
-3 -16 -9 -4.2336 8.6655
-3 -16 -8 4.7970 2.5851
-3 -16 -7 3.3477 2.0449
-3 -16 -6 -4.9379 2.7432
-3 -16 -5 2.8955 6.6157
-3 -16 -4 1.6872 1.6846
-3 -16 -3 -6.1024 2.5465
-3 -15 -14 0.3115 -1.9014
-3 -15 -13 1.5763 -2.0471
-3 -15 -12 4.8319 0.0133
-3 -15 -11 2.2772 -0.0478
-3 -15 -10 -2.0546 2.1049
-3 -15 -9 2.0769 -0.6380
-3 -15 -8 1.2419 -4.5006
-3 -15 -7 -1.4036 -3.4851
-3 -15 -6 -1.1740 -0.4333
-3 -15 -5 2.1542 -1.5109
-3 -15 -4 -0.3167 -3.4942
-3 -14 -13 0.7990 0.1208
-3 -14 -12 -0.0484 -1.6059
-3 -14 -11 0.9484 -0.8008
-3 -14 -10 -1.5962 -4.9878
-3 -14 -9 -4.1793 1.5615
-3 -14 -8 -4.0908 -1.3160
-3 -14 -7 0.2234 1.2876
-3 -14 -6 -3.8766 0.5448
-3 -14 -5 3.4485 3.5193
-3 -14 -4 0.3737 -1.3989
-3 -14 -3 9.5931 1.0522
-3 -13 -12 4.1180 -4.9020
-3 -13 -11 0.4725 3.4922
-3 -13 -10 -2.6817 1.8720
-3 -13 -9 -2.2645 -5.0560
-3 -13 -8 1.8822 -2.9068
-3 -13 -7 -1.7168 2.4135
-3 -13 -6 0.6648 4.1070
-3 -13 -5 4.9507 2.7001
-3 -13 -4 -1.5420 4.0619
-3 -12 -11 1.1483 -0.3774
-3 -12 -10 1.7248 -1.3406
-3 -12 -9 1.8261 -4.4700
-3 -12 -8 -7.8490 1.6621
-3 -12 -7 1.6503 -2.9636
-3 -12 -6 0.4253 0.4637
-3 -12 -5 2.2986 -2.4906
-3 -12 -4 -1.0265 0.4588
-3 -12 -3 0.1443 -6.7841
-3 -11 -10 1.5283 -0.8929
-3 -11 -9 5.0047 4.2009
-3 -11 -8 4.2448 -4.5101
-3 -11 -7 -0.6435 -3.8339
-3 -11 -6 -5.0245 -0.8404
-3 -11 -5 2.1160 1.0466
-3 -11 -4 2.1315 -1.2417
-3 -10 -9 0.5026 -2.0155
-3 -10 -8 4.8104 -1.0778
-3 -10 -7 -1.5777 -2.0957
-3 -10 -6 -3.0328 -4.5105
-3 -10 -5 1.4164 1.7949
-3 -10 -4 -5.3921 -2.4174
-3 -10 -3 2.1281 5.7102
-3 -9 -8 1.6272 3.8170
-3 -9 -7 1.1445 -3.1742
-3 -9 -6 -4.3763 0.3667
-3 -9 -5 -6.6550 -0.9226
-3 -9 -4 -3.0444 4.0496
-3 -8 -7 -3.2736 -0.1233
-3 -8 -6 2.8294 0.9181
-3 -8 -5 8.1230 -4.2458
-3 -8 -4 -2.4748 1.8425
-3 -8 -3 6.9871 2.9245
-3 -7 -6 1.3425 -2.3419
-3 -7 -5 -3.7717 -0.4507
-3 -7 -4 -2.6209 2.5032
-3 -6 -5 1.8885 -2.7017
-3 -6 -4 7.5899 4.1070
-3 -6 -3 -7.6265 -8.2222
-3 -5 -4 1.3577 1.6537
-3 -4 -3 3.8645 1.6982
-2 -25 -7 2.0435 2.8763
-2 -25 -6 -0.4841 -2.3999
-2 -25 -5 -0.0574 0.0601
-2 -25 -4 0.5173 -0.1240
-2 -25 -3 -3.0919 0.7335
-2 -24 -10 0.2955 -0.1371
-2 -24 -9 -4.6464 0.2211
-2 -24 -8 -0.4100 -0.2317
-2 -24 -7 2.6228 -1.3213
-2 -24 -6 -1.3514 1.7603
-2 -24 -5 1.1688 1.9637
-2 -24 -4 -3.2830 -2.6329
-2 -24 -3 -0.8141 2.5702
-2 -24 -2 -1.0370 0.3197
-2 -23 -12 -0.2998 -2.5574
-2 -23 -11 -1.4231 -3.0375
-2 -23 -10 0.3264 -3.3659
-2 -23 -9 -0.7729 0.6534
-2 -23 -8 2.1623 -2.3798
-2 -23 -7 1.0928 -2.2878
-2 -23 -6 2.0398 1.9931
-2 -23 -5 1.2745 -0.2369
-2 -23 -4 -1.0977 -2.8326
-2 -23 -3 0.5440 -1.4613
-2 -22 -13 -0.8318 0.8226
-2 -22 -12 -1.3630 -2.6497
-2 -22 -11 2.3058 2.0660
-2 -22 -10 -2.5509 2.3595
-2 -22 -9 -1.4222 0.4829
-2 -22 -8 -1.3651 2.0064
-2 -22 -7 -1.0381 0.2646
-2 -22 -6 -1.0035 -0.7516
-2 -22 -5 -1.3791 1.7495
-2 -22 -4 0.0862 0.6772
-2 -22 -3 1.1680 -1.6702
-2 -22 -2 2.7039 -0.5116
-2 -21 -15 1.8524 0.4053
-2 -21 -14 -3.5884 1.4506
-2 -21 -13 -0.8775 -2.7432
-2 -21 -12 4.0647 -5.5747
-2 -21 -11 -1.7366 -4.0241
-2 -21 -10 3.4840 -0.3277
-2 -21 -9 3.1885 -0.1559
-2 -21 -8 1.2936 4.5383
-2 -21 -7 -0.5172 -0.5209
-2 -21 -6 0.4900 -2.5134
-2 -21 -5 -0.6962 -0.0910
-2 -21 -4 -1.5373 2.4180
-2 -21 -3 4.5525 0.4547
-2 -20 -16 0.1611 -1.3012
-2 -20 -15 0.2918 1.8159
-2 -20 -14 0.9446 2.2157
-2 -20 -13 2.9545 -1.3232
-2 -20 -12 -1.1739 1.9552
-2 -20 -11 -0.5695 -0.2360
-2 -20 -10 -2.5441 1.8472
-2 -20 -9 -1.2552 1.0220
-2 -20 -8 3.6654 0.5439
-2 -20 -7 -1.9821 3.3421
-2 -20 -6 -0.4837 2.8129
-2 -20 -5 -1.1391 -2.3873
-2 -20 -4 -0.4293 0.7450
-2 -20 -3 3.9095 3.7235
-2 -20 -2 -2.3192 -2.6901
-2 -19 -17 0.5882 -1.2026
-2 -19 -16 -2.1545 -3.3551
-2 -19 -15 -1.3035 2.4445
-2 -19 -14 1.2303 0.4460
-2 -19 -13 1.8826 0.8219
-2 -19 -12 4.6427 -1.8561
-2 -19 -11 0.0141 1.1672
-2 -19 -10 0.4303 -3.8354
-2 -19 -9 -1.5395 1.3539
-2 -19 -8 -2.9183 2.1240
-2 -19 -7 -0.2759 0.4029
-2 -19 -6 3.0163 -0.2964
-2 -19 -5 -0.5287 -0.9486
-2 -19 -4 -1.9981 0.8822
-2 -19 -3 -3.5795 0.4834
-2 -18 -18 2.4063 -1.1489
-2 -18 -17 0.7765 1.4530
-2 -18 -16 -0.7895 -4.5557
-2 -18 -15 2.3166 -1.6479
-2 -18 -14 1.1900 0.2841
-2 -18 -13 1.8604 -2.6488
-2 -18 -12 7.7873 2.8654
-2 -18 -11 -3.6765 -1.8351
-2 -18 -10 0.2639 -3.4205
-2 -18 -9 -0.7069 -5.0732
-2 -18 -8 -1.0188 0.0088
-2 -18 -7 -1.4060 0.0092
-2 -18 -6 6.3409 7.9862
-2 -18 -5 1.5162 1.2991
-2 -18 -4 2.5149 -1.9376
-2 -18 -3 -2.0816 -3.0345
-2 -18 -2 4.1434 -3.4759
-2 -17 -17 3.9384 4.3406
-2 -17 -16 3.2227 -2.2549
-2 -17 -15 -0.5038 -7.4720
-2 -17 -14 0.5623 0.6255
-2 -17 -13 1.6609 -1.8743
-2 -17 -12 5.9693 1.8331
-2 -17 -11 1.5470 2.1329
-2 -17 -10 4.4904 0.4949
-2 -17 -9 -3.6098 1.2415
-2 -17 -8 -0.7018 -0.1499
-2 -17 -7 4.2907 0.0963
-2 -17 -6 1.3818 2.4942
-2 -17 -5 3.7218 -0.6236
-2 -17 -4 0.4860 5.5696
-2 -17 -3 -0.0569 -5.7339
-2 -16 -16 0.6342 2.1577
-2 -16 -15 2.1369 -4.7527
-2 -16 -14 -1.4345 -2.5068
-2 -16 -13 6.1098 2.7575
-2 -16 -12 2.3166 0.2011
-2 -16 -11 1.1623 -0.4255
-2 -16 -10 3.4657 -2.8089
-2 -16 -9 3.0723 -2.3565
-2 -16 -8 -4.0226 -0.7182
-2 -16 -7 0.2364 2.5300
-2 -16 -6 0.3493 -0.3071
-2 -16 -5 -4.4152 -1.6694
-2 -16 -4 0.2475 1.6745
-2 -16 -3 10.4989 -5.6086
-2 -16 -2 -4.9369 -5.8384
-2 -15 -15 -2.7904 3.5476
-2 -15 -14 -3.1539 2.8941
-2 -15 -13 -2.8809 0.8682
-2 -15 -12 3.1369 5.1150
-2 -15 -11 -5.8472 1.0394
-2 -15 -10 1.6166 -0.3697
-2 -15 -9 -4.3697 -3.9473
-2 -15 -8 3.2902 3.2195
-2 -15 -7 -3.2190 -0.7886
-2 -15 -6 3.5777 -0.2541
-2 -15 -5 -1.4680 1.9026
-2 -15 -4 4.7142 -1.0273
-2 -15 -3 2.1247 -3.6257
-2 -14 -14 2.9321 -0.0656
-2 -14 -13 5.1748 -1.3339
-2 -14 -12 0.3887 -2.5762
-2 -14 -11 0.6675 4.4923
-2 -14 -10 4.4427 0.1548
-2 -14 -9 -2.7196 2.0790
-2 -14 -8 1.4673 4.9865
-2 -14 -7 -1.1160 5.5677
-2 -14 -6 1.7427 -3.5559
-2 -14 -5 4.0335 1.5907
-2 -14 -4 2.5168 1.0837
-2 -14 -3 -6.0925 -2.7843
-2 -14 -2 1.0720 -1.9408
-2 -13 -13 5.8091 1.9397
-2 -13 -12 0.4764 -1.3578
-2 -13 -11 0.6361 2.8163
-2 -13 -10 2.0708 5.3284
-2 -13 -9 1.3861 -0.1810
-2 -13 -8 -2.4806 -1.5876
-2 -13 -7 3.0558 -2.1505
-2 -13 -6 2.4424 -1.3197
-2 -13 -5 -0.1445 -3.2668
-2 -13 -4 0.4117 -7.4185
-2 -13 -3 -4.0517 -2.3732
-2 -12 -12 1.1566 2.4326
-2 -12 -11 -1.0602 -4.6055
-2 -12 -10 -1.7502 4.1265
-2 -12 -9 -1.2372 6.6812
-2 -12 -8 -2.0495 -5.4304
-2 -12 -7 0.6581 -1.7505
-2 -12 -6 1.9399 2.5034
-2 -12 -5 -0.8990 1.3388
-2 -12 -4 -3.3639 1.7600
-2 -12 -3 3.1894 9.1462
-2 -12 -2 -1.7186 -0.1786
-2 -11 -11 -5.0045 -4.4008
-2 -11 -10 -1.5341 -5.1009
-2 -11 -9 0.2611 1.8306
-2 -11 -8 2.5217 5.0169
-2 -11 -7 2.0693 6.7326
-2 -11 -6 -1.8044 -3.6067
-2 -11 -5 -4.9801 3.7020
-2 -11 -4 3.0616 4.5469
-2 -11 -3 8.0993 -4.3753
-2 -10 -10 -2.4130 -3.7362
-2 -10 -9 6.2551 4.8578
-2 -10 -8 3.9687 1.5537
-2 -10 -7 13.0190 8.4055
-2 -10 -6 -6.3494 -5.5563
-2 -10 -5 0.4240 11.2264
-2 -10 -4 12.7290 -0.5196
-2 -10 -3 3.0843 -2.2706
-2 -10 -2 8.8496 9.9977
-2 -9 -9 6.9973 1.1821
-2 -9 -8 5.0890 2.8130
-2 -9 -7 0.6503 5.2888
-2 -9 -6 -0.6856 -3.7028
-2 -9 -5 -1.2259 -0.1887
-2 -9 -4 2.3192 -1.0716
-2 -9 -3 3.4338 2.8282
-2 -8 -8 -0.7442 -4.9158
-2 -8 -7 4.2615 -0.6170
-2 -8 -6 -0.0910 8.2106
-2 -8 -5 -4.0037 -1.8491
-2 -8 -4 8.2518 -0.8310
-2 -8 -3 2.1910 6.0888
-2 -8 -2 -5.5753 5.7219
-2 -7 -7 2.5564 -1.9144
-2 -7 -6 2.3406 4.8208
-2 -7 -5 -3.6512 4.2275
-2 -7 -4 5.2181 -5.0017
-2 -7 -3 -6.6298 -4.5975
-2 -6 -6 2.5295 -2.8643
-2 -6 -5 -4.7874 4.2551
-2 -6 -4 10.6427 0.7022
-2 -6 -3 0.3066 -3.8858
-2 -6 -2 4.2089 -10.6524
-2 -5 -5 -7.3463 -12.0139
-2 -5 -4 2.8341 6.3223
-2 -5 -3 1.7951 -3.3693
-2 -4 -4 -1.8542 -5.1642
-2 -4 -3 8.8386 -2.7390
-2 -4 -2 -2.1925 6.6364
-2 -3 -3 -0.0020 5.2212
-1 -26 -2 1.6432 -1.1013
-1 -26 -1 -3.2311 -1.0137
-1 -25 -7 1.5131 -0.1838
-1 -25 -6 -0.6236 1.0939
-1 -25 -5 1.3605 1.3521
-1 -25 -4 -0.3525 -2.0743
-1 -25 -3 3.7993 0.9334
-1 -25 -2 -3.1589 0.6621
-1 -24 -10 0.7192 1.1340
-1 -24 -9 -0.2968 -1.1789
-1 -24 -8 -1.7778 -1.0935
-1 -24 -7 -3.3183 1.3994
-1 -24 -6 0.1492 -0.4049
-1 -24 -5 1.8009 0.0092
-1 -24 -4 -0.8642 1.4618
-1 -24 -3 2.6803 0.2366
-1 -24 -2 0.2834 -0.7283
-1 -24 -1 -0.9010 -0.9838
-1 -23 -12 0.8054 0.5759
-1 -23 -11 -1.3739 -0.1189
-1 -23 -10 0.7952 0.1167
-1 -23 -9 1.5641 -1.8162
-1 -23 -8 0.0174 0.6832
-1 -23 -7 -2.2110 -0.0538
-1 -23 -6 -4.0461 1.1658
-1 -23 -5 -0.3496 1.3399
-1 -23 -4 3.7930 -0.6245
-1 -23 -3 2.1981 -2.3874
-1 -23 -2 1.5138 0.7745
-1 -22 -14 -2.6016 -0.1464
-1 -22 -13 3.6349 -0.9594
-1 -22 -12 -2.6541 1.6372
-1 -22 -11 3.0589 -1.9504
-1 -22 -10 0.6180 0.3678
-1 -22 -9 -0.8533 1.3563
-1 -22 -8 0.7443 0.8493
-1 -22 -7 0.7948 2.4587
-1 -22 -6 4.2980 -0.1430
-1 -22 -5 4.0719 5.3279
-1 -22 -4 1.2552 1.7081
-1 -22 -3 -0.3887 0.2476
-1 -22 -2 0.3170 -0.2984
-1 -22 -1 -2.8437 -1.8875
-1 -21 -15 -0.8295 0.4275
-1 -21 -14 -0.6805 0.8426
-1 -21 -13 -0.7785 0.7314
-1 -21 -12 0.0995 -0.4883
-1 -21 -11 -1.3932 -3.0719
-1 -21 -10 -0.3914 1.5500
-1 -21 -9 1.7939 0.8849
-1 -21 -8 0.1002 -2.3938
-1 -21 -7 -1.3823 0.3406
-1 -21 -6 2.9244 -2.2225
-1 -21 -5 0.9734 -1.8839
-1 -21 -4 -1.6830 0.4469
-1 -21 -3 5.1054 3.9255
-1 -21 -2 -3.3749 -0.5339
-1 -20 -16 1.2119 1.3223
-1 -20 -15 -0.5111 1.6856
-1 -20 -14 0.2530 -0.7118
-1 -20 -13 0.8936 -0.1658
-1 -20 -12 1.4511 -3.3170
-1 -20 -11 -1.5021 -1.2109
-1 -20 -10 0.8341 -1.1742
-1 -20 -9 -3.1303 -0.1118
-1 -20 -8 -1.5880 2.6270
-1 -20 -7 4.5319 0.3833
-1 -20 -6 -0.7817 -3.3450
-1 -20 -5 2.9097 3.3661
-1 -20 -4 -1.2036 0.1109
-1 -20 -3 -0.9089 1.6601
-1 -20 -2 -8.0996 -0.0998
-1 -20 -1 5.3258 -0.5857
-1 -19 -17 -3.0758 -1.5001
-1 -19 -16 -0.4154 -0.3569
-1 -19 -15 2.5741 0.5189
-1 -19 -14 -2.2406 -0.4927
-1 -19 -13 -1.0538 -0.5345
-1 -19 -12 -0.4476 -0.1659
-1 -19 -11 0.4840 -1.7309
-1 -19 -10 -0.2721 4.4047
-1 -19 -9 0.5200 -1.5707
-1 -19 -8 1.5650 -0.4310
-1 -19 -7 3.3321 -0.6938
-1 -19 -6 -1.0282 -1.3433
-1 -19 -5 -4.7053 -2.5865
-1 -19 -4 -2.1664 0.1387
-1 -19 -3 -8.1401 6.5656
-1 -19 -2 -7.0226 2.3878
-1 -18 -17 -2.4756 -2.1727
-1 -18 -16 -2.5401 -0.7833
-1 -18 -15 2.3883 -0.6487
-1 -18 -14 4.1505 -3.2421
-1 -18 -13 2.0522 1.4316
-1 -18 -12 1.8383 -2.0304
-1 -18 -11 -2.9484 2.0736
-1 -18 -10 -2.7525 0.4419
-1 -18 -9 -5.3985 0.9954
-1 -18 -8 -2.2368 -0.3924
-1 -18 -7 -7.1832 -2.3369
-1 -18 -6 1.7384 1.2429
-1 -18 -5 -5.4028 -0.7591
-1 -18 -4 1.5168 1.4446
-1 -18 -3 1.5167 2.2256
-1 -18 -2 7.9948 3.1887
-1 -18 -1 -0.9354 2.4122
-1 -17 -16 -1.5639 -1.9100
-1 -17 -15 2.2594 0.8650
-1 -17 -14 1.5015 -1.9717
-1 -17 -13 1.8727 1.8947
-1 -17 -12 1.5799 2.1529
-1 -17 -11 -3.4713 0.0105
-1 -17 -10 -3.1288 2.5078
-1 -17 -9 -3.3697 -1.5554
-1 -17 -8 -0.6653 -2.1186
-1 -17 -7 -0.7650 -3.7927
-1 -17 -6 -2.9999 2.5846
-1 -17 -5 -1.6180 -0.6695
-1 -17 -4 -4.1946 1.9338
-1 -17 -3 -0.4089 -0.7797
-1 -17 -2 -1.7818 -0.0417
-1 -16 -15 -0.0926 1.5604
-1 -16 -14 5.7516 -0.2664
-1 -16 -13 -0.3233 0.5484
-1 -16 -12 -2.0981 2.6336
-1 -16 -11 6.7571 -2.0937
-1 -16 -10 -2.3275 -2.7546
-1 -16 -9 2.2271 0.1672
-1 -16 -8 5.6868 0.2250
-1 -16 -7 2.7072 -2.0861
-1 -16 -6 -2.0344 1.9882
-1 -16 -5 5.7413 0.7343
-1 -16 -4 3.5302 3.5521
-1 -16 -3 -0.4822 -4.7047
-1 -16 -2 5.0754 3.5123
-1 -16 -1 4.7951 -4.9203
-1 -15 -14 1.6682 0.4431
-1 -15 -13 1.0471 -1.7486
-1 -15 -12 3.7474 -2.6893
-1 -15 -11 -1.3253 2.5639
-1 -15 -10 4.1998 2.4918
-1 -15 -9 -1.5458 1.1212
-1 -15 -8 17.9799 -0.9126
-1 -15 -7 -2.1527 3.8964
-1 -15 -6 1.0631 1.2183
-1 -15 -5 1.1772 -0.3296
-1 -15 -4 2.2488 0.8671
-1 -15 -3 2.9553 -2.4966
-1 -15 -2 -2.5196 1.4892
-1 -14 -13 4.6436 2.5471
-1 -14 -12 -9.2398 -0.4691
-1 -14 -11 -1.3675 -1.9016
-1 -14 -10 -4.9265 0.4809
-1 -14 -9 -5.1127 3.4596
-1 -14 -8 2.6836 1.6271
-1 -14 -7 -7.4698 0.4334
-1 -14 -6 3.0962 -0.3291
-1 -14 -5 -1.8862 -4.5275
-1 -14 -4 -7.9916 -2.1933
-1 -14 -3 5.2541 0.4545
-1 -14 -2 -0.3286 0.9201
-1 -14 -1 -15.1844 -3.7812
-1 -13 -12 -2.6041 -4.8870
-1 -13 -11 -2.8999 -1.0699
-1 -13 -10 -1.9693 3.6314
-1 -13 -9 4.5285 -1.2716
-1 -13 -8 4.8307 -1.2795
-1 -13 -7 -2.2540 2.5074
-1 -13 -6 1.1601 2.8646
-1 -13 -5 -0.1427 -3.5763
-1 -13 -4 5.4241 -3.6179
-1 -13 -3 -4.2462 -0.2452
-1 -13 -2 -6.2853 -5.4914
-1 -12 -11 -12.1178 -0.8567
-1 -12 -10 0.3087 1.1252
-1 -12 -9 -2.1237 -0.5688
-1 -12 -8 -4.6338 3.9943
-1 -12 -7 -2.5501 -1.6230
-1 -12 -6 7.1176 -1.1321
-1 -12 -5 3.9132 7.3231
-1 -12 -4 -1.8944 1.2712
-1 -12 -3 -6.4804 1.2951
-1 -12 -2 -13.0017 -2.7340
-1 -12 -1 12.9001 -1.1865
-1 -11 -10 7.3174 0.4089
-1 -11 -9 3.3595 1.0172
-1 -11 -8 -0.2599 -1.2492
-1 -11 -7 -6.3520 -0.4968
-1 -11 -6 2.4326 -1.9443
-1 -11 -5 2.1595 0.6483
-1 -11 -4 -7.7319 -1.5111
-1 -11 -3 -6.2331 -0.5841
-1 -11 -2 -8.8671 -3.8832
-1 -10 -9 7.0180 -0.2201
-1 -10 -8 -3.8971 -2.5132
-1 -10 -7 -6.4485 0.4554
-1 -10 -6 -1.2350 1.9344
-1 -10 -5 -3.7986 -5.2535
-1 -10 -4 1.8644 4.5595
-1 -10 -3 -8.0738 9.4008
-1 -10 -2 2.3685 1.6180
-1 -10 -1 6.6684 8.9591
-1 -9 -8 0.9017 8.3034
-1 -9 -7 -2.1927 -0.6450
-1 -9 -6 2.8217 -2.3412
-1 -9 -5 4.9572 -0.3195
-1 -9 -4 -10.9300 -5.4023
-1 -9 -3 3.5110 1.2899
-1 -9 -2 -5.4426 2.3786
-1 -8 -7 -7.7481 5.8370
-1 -8 -6 2.5474 2.4837
-1 -8 -5 -8.3269 -8.0422
-1 -8 -4 -1.2556 -0.9592
-1 -8 -3 10.2126 0.3014
-1 -8 -2 1.7123 4.0755
-1 -8 -1 -6.9405 3.9554
-1 -7 -6 0.4189 7.4379
-1 -7 -5 -2.6411 -0.0338
-1 -7 -4 -4.3200 5.9894
-1 -7 -3 -2.6432 -0.6566
-1 -7 -2 5.5656 -3.4841
-1 -6 -5 -5.9773 -0.6145
-1 -6 -4 -7.0934 -4.7806
-1 -6 -3 -6.2733 -11.7225
-1 -6 -2 1.5783 -1.8021
-1 -6 -1 -2.3355 -4.4114
-1 -5 -4 -10.8634 -8.6081
-1 -5 -3 1.6595 -0.8239
-1 -5 -2 -4.4480 7.5847
-1 -4 -3 -3.9318 -7.9148
-1 -4 -2 3.0090 8.3664
-1 -4 -1 -1.9630 2.5325
-1 -3 -2 -2.0609 2.0042
-1 -2 -1 10.7295 -3.6852
0 1 1 2.7108 15.9299
0 2 0 21.9869 51.1991
0 2 1 17.2377 -1.7554
0 2 2 -0.5518 -18.9588
0 3 1 -6.7510 -7.3969
0 3 2 0.6191 -11.3042
0 3 3 -2.4408 8.0236
0 4 0 19.3808 -10.9355
0 4 1 -8.9526 3.7127
0 4 2 -9.4662 -0.8922
0 4 3 -5.3623 -13.3735
0 4 4 -12.6576 2.6279
0 5 1 -3.2714 1.3908
0 5 2 11.5869 5.9299
0 5 3 0.5916 1.4305
0 5 4 3.9349 -18.8159
0 5 5 9.6635 9.7004
0 6 0 -6.1132 -9.3100
0 6 1 8.6647 -5.4933
0 6 2 -17.5003 0.3136
0 6 3 -1.2917 10.8817
0 6 4 7.3424 -8.2028
0 6 5 3.5369 -16.9241
0 6 6 -6.5867 10.8968
0 7 1 -2.8825 0.7778
0 7 2 -5.8663 -1.0906
0 7 3 -1.0732 -2.6519
0 7 4 -1.8230 7.7984
0 7 5 0.8439 -5.5236
0 7 6 5.3216 -16.3071
0 7 7 -2.4991 6.2337
0 8 0 -16.3562 11.2238
0 8 1 1.6078 3.8702
0 8 2 -18.0455 2.1664
0 8 3 -5.6750 -5.9398
0 8 4 16.5783 3.5062
0 8 5 1.4063 8.2603
0 8 6 -5.1145 -7.6881
0 8 7 -1.3796 -4.5224
0 8 8 5.8772 8.8344
0 9 1 -0.2296 0.1940
0 9 2 -0.4249 -1.6778
0 9 3 7.6137 -0.2646
0 9 4 -1.7197 -0.5162
0 9 5 7.5722 1.5831
0 9 6 4.9758 3.2316
0 9 7 -3.2660 -6.5625
0 9 8 5.4533 -1.1703
0 9 9 -0.4820 4.7757
0 10 0 -18.5583 -6.4841
0 10 1 3.6077 -1.0271
0 10 2 -20.4343 -1.9899
0 10 3 -1.2660 2.2854
0 10 4 -0.1614 -4.4621
0 10 5 3.8284 -1.5822
0 10 6 -7.4511 5.2518
0 10 7 4.5789 0.2308
0 10 8 3.5099 -8.2838
0 10 9 -1.1230 11.3505
0 10 10 -0.5215 7.7086
0 11 1 -0.6883 -1.8182
0 11 2 6.7405 3.4338
0 11 3 -5.1209 2.6512
0 11 4 8.8068 -2.4355
0 11 5 0.1132 -1.8667
0 11 6 2.9762 0.5781
0 11 7 6.2265 0.9295
0 11 8 1.4881 -4.9927
0 11 9 2.5905 -5.3603
0 11 10 1.7055 11.5325
0 11 11 5.8624 8.2251
0 12 0 14.4089 -3.1512
0 12 1 9.6883 1.4750
0 12 2 -9.0060 4.8026
0 12 3 -8.0005 -2.3736
0 12 4 -17.9617 1.1983
0 12 5 -0.9826 0.8066
0 12 6 0.8133 -2.5809
0 12 7 8.8170 0.1441
0 12 8 -0.9103 4.0309
0 12 9 4.0696 -5.8527
0 12 10 -1.8562 -5.0833
0 12 11 -1.7292 14.4367
0 12 12 4.4459 2.7213
0 13 1 4.2709 2.0054
0 13 2 -2.6204 -2.8739
0 13 3 3.4205 -1.5872
0 13 4 1.4925 2.7194
0 13 5 3.7280 0.5523
0 13 6 0.5876 -0.9006
0 13 7 -3.6223 -0.1286
0 13 8 -1.6151 1.6867
0 13 9 -10.2765 2.0440
0 13 10 -2.2363 -7.1404
0 13 11 -7.4978 -2.1446
0 13 12 1.3041 10.2778
0 13 13 1.5140 2.0834
0 14 0 -3.0531 11.5555
0 14 1 -23.3717 -1.5395
0 14 2 -1.3417 -6.3271
0 14 3 -30.0935 3.2308
0 14 4 -5.5016 1.8039
0 14 5 -8.1332 -1.8970
0 14 6 2.5043 0.0622
0 14 7 5.6749 -1.1324
0 14 8 7.4628 -2.8096
0 14 9 -0.2621 2.8560
0 14 10 4.9635 2.5968
0 14 11 3.0786 -5.8408
0 14 12 0.5934 0.5526
0 14 13 2.2202 8.0073
0 14 14 -1.7452 -4.7238
0 15 1 -5.1477 -0.4705
0 15 2 -2.7903 0.2501
0 15 3 2.5681 -0.7455
0 15 4 1.1482 -0.8483
0 15 5 -0.7725 1.9008
0 15 6 -3.6727 -1.3333
0 15 7 0.4511 -0.3999
0 15 8 -2.2592 0.7270
0 15 9 4.7249 -0.8172
0 15 10 -7.7813 2.3661
0 15 11 -0.7881 -0.6214
0 15 12 3.0279 -5.2588
0 15 13 1.8534 3.1327
0 15 14 -2.4122 4.7747
0 15 15 -1.0931 -7.2526
0 16 0 8.8598 -12.9220
0 16 2 0.6508 5.0810
0 16 3 31.9948 -2.7236
0 16 4 -0.3969 -0.7712
0 16 5 -11.0920 2.6240
0 16 6 3.1789 0.2247
0 16 7 -1.5259 -0.8124
0 16 8 -2.9839 1.2878
0 16 9 -14.0835 -1.8267
0 16 10 1.3733 -0.1487
0 16 11 -2.6500 2.7015
0 16 12 -2.5103 -0.5320
0 16 13 4.0084 -2.6065
0 16 14 -0.3646 4.2889
0 16 15 1.5686 2.0982
0 16 16 7.8200 -5.6427
0 17 1 -3.4681 -0.2761
0 17 2 -0.1787 1.3663
0 17 3 -3.7201 1.7828
0 17 4 1.5870 -2.6615
0 17 5 -1.7498 -3.1551
0 17 6 4.9257 3.2687
0 17 7 3.1521 0.9193
0 17 8 -2.7735 -2.0370
0 17 9 2.8204 -0.0112
0 17 10 -7.2136 -0.7821
0 17 11 -0.0092 1.2567
0 17 12 6.2406 2.8633
0 17 13 0.7829 -1.2277
0 17 14 0.5179 -2.8793
0 17 15 -1.5491 4.7172
0 17 16 -0.8118 0.4779
0 17 17 1.3583 -9.7676
0 18 0 -5.1042 7.7778
0 18 1 -1.7270 -0.7355
0 18 2 0.6092 -2.1465
0 18 3 -10.0803 2.3618
0 18 4 -0.7478 -0.2378
0 18 5 -7.5878 -2.8496
0 18 6 -1.7304 0.0017
0 18 7 4.1670 1.9704
0 18 8 -7.8626 -0.5416
0 18 9 -2.6225 -0.0962
0 18 10 -2.3332 -0.2004
0 18 11 1.9876 -0.6609
0 18 12 2.8327 0.4548
0 18 13 3.2275 0.4536
0 18 14 -0.7293 -1.1147
0 18 15 -0.9283 -0.3515
0 18 16 1.5921 2.8194
0 18 17 -0.1772 -1.3028
0 18 18 -2.3118 -1.1168
0 19 1 -0.4961 0.3376
0 19 2 -4.8065 -2.1969
0 19 3 -0.5388 -2.0137
0 19 4 -0.3276 4.4054
0 19 5 -3.1040 2.7651
0 19 6 1.9698 -3.3618
0 19 7 -9.0881 0.4506
0 19 8 -9.5720 1.9340
0 19 9 -4.0143 -0.9474
0 19 10 -4.5766 -0.1954
0 19 11 -0.4267 0.1292
0 19 12 6.4526 -1.5785
0 19 13 -0.4827 0.4455
0 19 14 9.0369 2.0278
0 19 15 -2.2724 -2.0453
0 19 16 2.7238 -0.4656
0 19 17 1.1756 5.7423
0 20 0 2.2524 -1.3221
0 20 1 16.4056 0.8398
0 20 2 -5.7445 -0.0370
0 20 3 1.6548 -1.6240
0 20 4 -6.3763 0.9505
0 20 5 1.7640 1.2816
0 20 6 -3.3891 -0.7477
0 20 7 3.7500 -1.5847
0 20 8 2.1868 0.7697
0 20 9 1.4427 1.3753
0 20 10 -1.1051 -0.3825
0 20 11 2.8804 -1.1696
0 20 12 -2.7466 0.3275
0 20 13 -3.0769 1.1685
0 20 14 1.4645 0.3244
0 20 15 -0.4127 -0.4027
0 20 16 4.5888 -1.2313
0 21 1 -6.6252 -0.3935
0 21 2 -0.5418 1.3294
0 21 3 -2.1510 1.5803
0 21 4 1.2672 -3.2641
0 21 6 -0.2532 2.1449
0 21 7 0.0905 -1.8254
0 21 8 2.2574 -1.4542
0 21 9 7.4538 2.2551
0 21 10 3.3709 0.2185
0 21 11 -4.4028 -2.0938
0 21 12 -2.3157 1.8100
0 21 13 -4.4085 0.4737
0 21 14 -0.3431 -1.9363
0 21 15 -2.7636 1.6005
0 22 0 6.7386 -2.4146
0 22 1 13.7977 -0.6721
0 22 2 1.3273 1.9185
0 22 3 2.0647 0.3205
0 22 4 -1.0286 -1.2340
0 22 5 -3.8714 -0.0204
0 22 6 0.8285 1.1285
0 22 7 -1.9886 1.0403
0 22 8 -1.6584 -0.6182
0 22 9 -4.0728 -1.5005
0 22 10 -7.8666 0.4394
0 22 11 3.2515 1.7657
0 22 12 -7.3137 -0.4330
0 22 13 -6.2926 -1.8161
0 22 14 1.1724 -0.2536
0 23 1 -2.4359 0.4825
0 23 2 -2.2536 -0.3857
0 23 3 -2.7400 -0.4061
0 23 4 -0.5420 1.5563
0 23 5 -6.6145 -0.5836
0 23 6 1.6286 -0.9067
0 23 7 -2.7967 2.1610
0 23 8 7.1111 0.4807
0 23 9 3.3827 -2.5372
0 23 10 1.9683 1.0343
0 23 11 0.8632 3.0691
0 23 12 -3.4537 -3.7284
0 24 0 6.3310 3.4275
0 24 1 2.3121 0.0956
0 24 2 0.9987 -2.5556
0 24 3 -5.6851 1.1033
0 24 4 -2.9052 0.8680
0 24 5 -2.2854 -0.5000
0 24 6 -1.5539 -0.0190
0 24 7 2.7966 -0.7466
0 24 8 -1.5813 -0.5389
0 24 9 -3.6832 0.6517
0 24 10 1.3442 0.0929
0 25 1 6.1472 -0.0380
0 25 2 -5.3471 -0.0434
0 25 3 -2.0795 0.1024
0 25 4 -1.4085 -0.3526
0 25 5 -2.4816 0.9684
0 25 6 -3.3798 -0.0785
0 25 7 1.0585 -2.3628
0 26 0 5.1359 -2.7401
0 26 1 -0.0547 0.9461
0 26 2 0.7382 2.2887
1 2 1 10.7295 3.6852
1 3 2 -2.0609 -2.0042
1 4 1 -1.9630 -2.5325
1 4 2 3.0090 -8.3664
1 4 3 -3.9318 7.9148
1 5 2 -4.4480 -7.5847
1 5 3 1.6595 0.8239
1 5 4 -10.8634 8.6081
1 6 1 -2.3355 4.4114
1 6 2 1.5783 1.8021
1 6 3 -6.2733 11.7225
1 6 4 -7.0934 4.7806
1 6 5 -5.9773 0.6145
1 7 2 5.5656 3.4841
1 7 3 -2.6432 0.6566
1 7 4 -4.3200 -5.9894
1 7 5 -2.6411 0.0338
1 7 6 0.4189 -7.4379
1 8 1 -6.9405 -3.9554
1 8 2 1.7123 -4.0755
1 8 3 10.2126 -0.3014
1 8 4 -1.2556 0.9592
1 8 5 -8.3269 8.0422
1 8 6 2.5474 -2.4837
1 8 7 -7.7481 -5.8370
1 9 2 -5.4426 -2.3786
1 9 3 3.5110 -1.2899
1 9 4 -10.9300 5.4023
1 9 5 4.9572 0.3195
1 9 6 2.8217 2.3412
1 9 7 -2.1927 0.6450
1 9 8 0.9017 -8.3034
1 10 1 6.6684 -8.9591
1 10 2 2.3685 -1.6180
1 10 3 -8.0738 -9.4008
1 10 4 1.8644 -4.5595
1 10 5 -3.7986 5.2535
1 10 6 -1.2350 -1.9344
1 10 7 -6.4485 -0.4554
1 10 8 -3.8971 2.5132
1 10 9 7.0180 0.2201
1 11 2 -8.8671 3.8832
1 11 3 -6.2331 0.5841
1 11 4 -7.7319 1.5111
1 11 5 2.1595 -0.6483
1 11 6 2.4326 1.9443
1 11 7 -6.3520 0.4968
1 11 8 -0.2599 1.2492
1 11 9 3.3595 -1.0172
1 11 10 7.3174 -0.4089
1 12 1 12.9001 1.1865
1 12 2 -13.0017 2.7340
1 12 3 -6.4804 -1.2951
1 12 4 -1.8944 -1.2712
1 12 5 3.9132 -7.3231
1 12 6 7.1176 1.1321
1 12 7 -2.5501 1.6230
1 12 8 -4.6338 -3.9943
1 12 9 -2.1237 0.5688
1 12 10 0.3087 -1.1252
1 13 2 -6.2853 5.4914
1 13 3 -4.2462 0.2452
1 13 4 5.4241 3.6179
1 13 5 -0.1427 3.5763
1 13 6 1.1601 -2.8646
1 13 7 -2.2540 -2.5074
1 13 8 4.8307 1.2795
1 13 9 4.5285 1.2716
1 13 10 -1.9693 -3.6314
1 13 11 -2.8999 1.0699
1 13 12 -2.6041 4.8870
1 14 1 -15.1844 3.7812
1 14 2 -0.3286 -0.9201
1 14 3 5.2541 -0.4545
1 14 4 -7.9916 2.1933
1 14 5 -1.8862 4.5275
1 14 6 3.0962 0.3291
1 14 7 -7.4698 -0.4334
1 14 8 2.6836 -1.6271
1 14 9 -5.1127 -3.4596
1 14 10 -4.9265 -0.4809
1 14 11 -1.3675 1.9016
1 14 12 -9.2398 0.4691
1 14 13 4.6436 -2.5471
1 15 2 -2.5196 -1.4892
1 15 3 2.9553 2.4966
1 15 4 2.2488 -0.8671
1 15 5 1.1772 0.3296
1 15 6 1.0631 -1.2183
1 15 7 -2.1527 -3.8964
1 15 8 17.9799 0.9126
1 15 9 -1.5458 -1.1212
1 15 10 4.1998 -2.4918
1 15 11 -1.3253 -2.5639
1 15 12 3.7474 2.6893
1 15 13 1.0471 1.7486
1 15 14 1.6682 -0.4431
1 16 1 4.7951 4.9203
1 16 2 5.0754 -3.5123
1 16 3 -0.4822 4.7047
1 16 4 3.5302 -3.5521
1 16 5 5.7413 -0.7343
1 16 6 -2.0344 -1.9882
1 16 7 2.7072 2.0861
1 16 8 5.6868 -0.2250
1 16 9 2.2271 -0.1672
1 16 10 -2.3275 2.7546
1 16 11 6.7571 2.0937
1 16 12 -2.0981 -2.6336
1 16 13 -0.3233 -0.5484
1 16 14 5.7516 0.2664
1 16 15 -0.0926 -1.5604
1 17 2 -1.7818 0.0417
1 17 3 -0.4089 0.7797
1 17 4 -4.1946 -1.9338
1 17 5 -1.6180 0.6695
1 17 6 -2.9999 -2.5846
1 17 7 -0.7650 3.7927
1 17 8 -0.6653 2.1186
1 17 9 -3.3697 1.5554
1 17 10 -3.1288 -2.5078
1 17 11 -3.4713 -0.0105
1 17 12 1.5799 -2.1529
1 17 13 1.8727 -1.8947
1 17 14 1.5015 1.9717
1 17 15 2.2594 -0.8650
1 17 16 -1.5639 1.9100
1 18 1 -0.9354 -2.4122
1 18 2 7.9948 -3.1887
1 18 3 1.5167 -2.2256
1 18 4 1.5168 -1.4446
1 18 5 -5.4028 0.7591
1 18 6 1.7384 -1.2429
1 18 7 -7.1832 2.3369
1 18 8 -2.2368 0.3924
1 18 9 -5.3985 -0.9954
1 18 10 -2.7525 -0.4419
1 18 11 -2.9484 -2.0736
1 18 12 1.8383 2.0304
1 18 13 2.0522 -1.4316
1 18 14 4.1505 3.2421
1 18 15 2.3883 0.6487
1 18 16 -2.5401 0.7833
1 18 17 -2.4756 2.1727
1 19 2 -7.0226 -2.3878
1 19 3 -8.1401 -6.5656
1 19 4 -2.1664 -0.1387
1 19 5 -4.7053 2.5865
1 19 6 -1.0282 1.3433
1 19 7 3.3321 0.6938
1 19 8 1.5650 0.4310
1 19 9 0.5200 1.5707
1 19 10 -0.2721 -4.4047
1 19 11 0.4840 1.7309
1 19 12 -0.4476 0.1659
1 19 13 -1.0538 0.5345
1 19 14 -2.2406 0.4927
1 19 15 2.5741 -0.5189
1 19 16 -0.4154 0.3569
1 19 17 -3.0758 1.5001
1 20 1 5.3258 0.5857
1 20 2 -8.0996 0.0998
1 20 3 -0.9089 -1.6601
1 20 4 -1.2036 -0.1109
1 20 5 2.9097 -3.3661
1 20 6 -0.7817 3.3450
1 20 7 4.5319 -0.3833
1 20 8 -1.5880 -2.6270
1 20 9 -3.1303 0.1118
1 20 10 0.8341 1.1742
1 20 11 -1.5021 1.2109
1 20 12 1.4511 3.3170
1 20 13 0.8936 0.1658
1 20 14 0.2530 0.7118
1 20 15 -0.5111 -1.6856
1 20 16 1.2119 -1.3223
1 21 2 -3.3749 0.5339
1 21 3 5.1054 -3.9255
1 21 4 -1.6830 -0.4469
1 21 5 0.9734 1.8839
1 21 6 2.9244 2.2225
1 21 7 -1.3823 -0.3406
1 21 8 0.1002 2.3938
1 21 9 1.7939 -0.8849
1 21 10 -0.3914 -1.5500
1 21 11 -1.3932 3.0719
1 21 12 0.0995 0.4883
1 21 13 -0.7785 -0.7314
1 21 14 -0.6805 -0.8426
1 21 15 -0.8295 -0.4275
1 22 1 -2.8437 1.8875
1 22 2 0.3170 0.2984
1 22 3 -0.3887 -0.2476
1 22 4 1.2552 -1.7081
1 22 5 4.0719 -5.3279
1 22 6 4.2980 0.1430
1 22 7 0.7948 -2.4587
1 22 8 0.7443 -0.8493
1 22 9 -0.8533 -1.3563
1 22 10 0.6180 -0.3678
1 22 11 3.0589 1.9504
1 22 12 -2.6541 -1.6372
1 22 13 3.6349 0.9594
1 22 14 -2.6016 0.1464
1 23 2 1.5138 -0.7745
1 23 3 2.1981 2.3874
1 23 4 3.7930 0.6245
1 23 5 -0.3496 -1.3399
1 23 6 -4.0461 -1.1658
1 23 7 -2.2110 0.0538
1 23 8 0.0174 -0.6832
1 23 9 1.5641 1.8162
1 23 10 0.7952 -0.1167
1 23 11 -1.3739 0.1189
1 23 12 0.8054 -0.5759
1 24 1 -0.9010 0.9838
1 24 2 0.2834 0.7283
1 24 3 2.6803 -0.2366
1 24 4 -0.8642 -1.4618
1 24 5 1.8009 -0.0092
1 24 6 0.1492 0.4049
1 24 7 -3.3183 -1.3994
1 24 8 -1.7778 1.0935
1 24 9 -0.2968 1.1789
1 24 10 0.7192 -1.1340
1 25 2 -3.1589 -0.6621
1 25 3 3.7993 -0.9334
1 25 4 -0.3525 2.0743
1 25 5 1.3605 -1.3521
1 25 6 -0.6236 -1.0939
1 25 7 1.5131 0.1838
1 26 1 -3.2311 1.0137
1 26 2 1.6432 1.1013
2 3 3 -0.0020 -5.2212
2 4 2 -2.1925 -6.6364
2 4 3 8.8386 2.7390
2 4 4 -1.8542 5.1642
2 5 3 1.7951 3.3693
2 5 4 2.8341 -6.3223
2 5 5 -7.3463 12.0139
2 6 2 4.2089 10.6524
2 6 3 0.3066 3.8858
2 6 4 10.6427 -0.7022
2 6 5 -4.7874 -4.2551
2 6 6 2.5295 2.8643
2 7 3 -6.6298 4.5975
2 7 4 5.2181 5.0017
2 7 5 -3.6512 -4.2275
2 7 6 2.3406 -4.8208
2 7 7 2.5564 1.9144
2 8 2 -5.5753 -5.7219
2 8 3 2.1910 -6.0888
2 8 4 8.2518 0.8310
2 8 5 -4.0037 1.8491
2 8 6 -0.0910 -8.2106
2 8 7 4.2615 0.6170
2 8 8 -0.7442 4.9158
2 9 3 3.4338 -2.8282
2 9 4 2.3192 1.0716
2 9 5 -1.2259 0.1887
2 9 6 -0.6856 3.7028
2 9 7 0.6503 -5.2888
2 9 8 5.0890 -2.8130
2 9 9 6.9973 -1.1821
2 10 2 8.8496 -9.9977
2 10 3 3.0843 2.2706
2 10 4 12.7290 0.5196
2 10 5 0.4240 -11.2264
2 10 6 -6.3494 5.5563
2 10 7 13.0190 -8.4055
2 10 8 3.9687 -1.5537
2 10 9 6.2551 -4.8578
2 10 10 -2.4130 3.7362
2 11 3 8.0993 4.3753
2 11 4 3.0616 -4.5469
2 11 5 -4.9801 -3.7020
2 11 6 -1.8044 3.6067
2 11 7 2.0693 -6.7326
2 11 8 2.5217 -5.0169
2 11 9 0.2611 -1.8306
2 11 10 -1.5341 5.1009
2 11 11 -5.0045 4.4008
2 12 2 -1.7186 0.1786
2 12 3 3.1894 -9.1462
2 12 4 -3.3639 -1.7600
2 12 5 -0.8990 -1.3388
2 12 6 1.9399 -2.5034
2 12 7 0.6581 1.7505
2 12 8 -2.0495 5.4304
2 12 9 -1.2372 -6.6812
2 12 10 -1.7502 -4.1265
2 12 11 -1.0602 4.6055
2 12 12 1.1566 -2.4326
2 13 3 -4.0517 2.3732
2 13 4 0.4117 7.4185
2 13 5 -0.1445 3.2668
2 13 6 2.4424 1.3197
2 13 7 3.0558 2.1505
2 13 8 -2.4806 1.5876
2 13 9 1.3861 0.1810
2 13 10 2.0708 -5.3284
2 13 11 0.6361 -2.8163
2 13 12 0.4764 1.3578
2 13 13 5.8091 -1.9397
2 14 2 1.0720 1.9408
2 14 3 -6.0925 2.7843
2 14 4 2.5168 -1.0837
2 14 5 4.0335 -1.5907
2 14 6 1.7427 3.5559
2 14 7 -1.1160 -5.5677
2 14 8 1.4673 -4.9865
2 14 9 -2.7196 -2.0790
2 14 10 4.4427 -0.1548
2 14 11 0.6675 -4.4923
2 14 12 0.3887 2.5762
2 14 13 5.1748 1.3339
2 14 14 2.9321 0.0656
2 15 3 2.1247 3.6257
2 15 4 4.7142 1.0273
2 15 5 -1.4680 -1.9026
2 15 6 3.5777 0.2541
2 15 7 -3.2190 0.7886
2 15 8 3.2902 -3.2195
2 15 9 -4.3697 3.9473
2 15 10 1.6166 0.3697
2 15 11 -5.8472 -1.0394
2 15 12 3.1369 -5.1150
2 15 13 -2.8809 -0.8682
2 15 14 -3.1539 -2.8941
2 15 15 -2.7904 -3.5476
2 16 2 -4.9369 5.8384
2 16 3 10.4989 5.6086
2 16 4 0.2475 -1.6745
2 16 5 -4.4152 1.6694
2 16 6 0.3493 0.3071
2 16 7 0.2364 -2.5300
2 16 8 -4.0226 0.7182
2 16 9 3.0723 2.3565
2 16 10 3.4657 2.8089
2 16 11 1.1623 0.4255
2 16 12 2.3166 -0.2011
2 16 13 6.1098 -2.7575
2 16 14 -1.4345 2.5068
2 16 15 2.1369 4.7527
2 16 16 0.6342 -2.1577
2 17 3 -0.0569 5.7339
2 17 4 0.4860 -5.5696
2 17 5 3.7218 0.6236
2 17 6 1.3818 -2.4942
2 17 7 4.2907 -0.0963
2 17 8 -0.7018 0.1499
2 17 9 -3.6098 -1.2415
2 17 10 4.4904 -0.4949
2 17 11 1.5470 -2.1329
2 17 12 5.9693 -1.8331
2 17 13 1.6609 1.8743
2 17 14 0.5623 -0.6255
2 17 15 -0.5038 7.4720
2 17 16 3.2227 2.2549
2 17 17 3.9384 -4.3406
2 18 2 4.1434 3.4759
2 18 3 -2.0816 3.0345
2 18 4 2.5149 1.9376
2 18 5 1.5162 -1.2991
2 18 6 6.3409 -7.9862
2 18 7 -1.4060 -0.0092
2 18 8 -1.0188 -0.0088
2 18 9 -0.7069 5.0732
2 18 10 0.2639 3.4205
2 18 11 -3.6765 1.8351
2 18 12 7.7873 -2.8654
2 18 13 1.8604 2.6488
2 18 14 1.1900 -0.2841
2 18 15 2.3166 1.6479
2 18 16 -0.7895 4.5557
2 18 17 0.7765 -1.4530
2 18 18 2.4063 1.1489
2 19 3 -3.5795 -0.4834
2 19 4 -1.9981 -0.8822
2 19 5 -0.5287 0.9486
2 19 6 3.0163 0.2964
2 19 7 -0.2759 -0.4029
2 19 8 -2.9183 -2.1240
2 19 9 -1.5395 -1.3539
2 19 10 0.4303 3.8354
2 19 11 0.0141 -1.1672
2 19 12 4.6427 1.8561
2 19 13 1.8826 -0.8219
2 19 14 1.2303 -0.4460
2 19 15 -1.3035 -2.4445
2 19 16 -2.1545 3.3551
2 19 17 0.5882 1.2026
2 20 2 -2.3192 2.6901
2 20 3 3.9095 -3.7235
2 20 4 -0.4293 -0.7450
2 20 5 -1.1391 2.3873
2 20 6 -0.4837 -2.8129
2 20 7 -1.9821 -3.3421
2 20 8 3.6654 -0.5439
2 20 9 -1.2552 -1.0220
2 20 10 -2.5441 -1.8472
2 20 11 -0.5695 0.2360
2 20 12 -1.1739 -1.9552
2 20 13 2.9545 1.3232
2 20 14 0.9446 -2.2157
2 20 15 0.2918 -1.8159
2 20 16 0.1611 1.3012
2 21 3 4.5525 -0.4547
2 21 4 -1.5373 -2.4180
2 21 5 -0.6962 0.0910
2 21 6 0.4900 2.5134
2 21 7 -0.5172 0.5209
2 21 8 1.2936 -4.5383
2 21 9 3.1885 0.1559
2 21 10 3.4840 0.3277
2 21 11 -1.7366 4.0241
2 21 12 4.0647 5.5747
2 21 13 -0.8775 2.7432
2 21 14 -3.5884 -1.4506
2 21 15 1.8524 -0.4053
2 22 2 2.7039 0.5116
2 22 3 1.1680 1.6702
2 22 4 0.0862 -0.6772
2 22 5 -1.3791 -1.7495
2 22 6 -1.0035 0.7516
2 22 7 -1.0381 -0.2646
2 22 8 -1.3651 -2.0064
2 22 9 -1.4222 -0.4829
2 22 10 -2.5509 -2.3595
2 22 11 2.3058 -2.0660
2 22 12 -1.3630 2.6497
2 22 13 -0.8318 -0.8226
2 23 3 0.5440 1.4613
2 23 4 -1.0977 2.8326
2 23 5 1.2745 0.2369
2 23 6 2.0398 -1.9931
2 23 7 1.0928 2.2878
2 23 8 2.1623 2.3798
2 23 9 -0.7729 -0.6534
2 23 10 0.3264 3.3659
2 23 11 -1.4231 3.0375
2 23 12 -0.2998 2.5574
2 24 2 -1.0370 -0.3197
2 24 3 -0.8141 -2.5702
2 24 4 -3.2830 2.6329
2 24 5 1.1688 -1.9637
2 24 6 -1.3514 -1.7603
2 24 7 2.6228 1.3213
2 24 8 -0.4100 0.2317
2 24 9 -4.6464 -0.2211
2 24 10 0.2955 0.1371
2 25 3 -3.0919 -0.7335
2 25 4 0.5173 0.1240
2 25 5 -0.0574 -0.0601
2 25 6 -0.4841 2.3999
2 25 7 2.0435 -2.8763
3 4 3 3.8645 -1.6982
3 5 4 1.3577 -1.6537
3 6 3 -7.6265 8.2222
3 6 4 7.5899 -4.1070
3 6 5 1.8885 2.7017
3 7 4 -2.6209 -2.5032
3 7 5 -3.7717 0.4507
3 7 6 1.3425 2.3419
3 8 3 6.9871 -2.9245
3 8 4 -2.4748 -1.8425
3 8 5 8.1230 4.2458
3 8 6 2.8294 -0.9181
3 8 7 -3.2736 0.1233
3 9 4 -3.0444 -4.0496
3 9 5 -6.6550 0.9226
3 9 6 -4.3763 -0.3667
3 9 7 1.1445 3.1742
3 9 8 1.6272 -3.8170
3 10 3 2.1281 -5.7102
3 10 4 -5.3921 2.4174
3 10 5 1.4164 -1.7949
3 10 6 -3.0328 4.5105
3 10 7 -1.5777 2.0957
3 10 8 4.8104 1.0778
3 10 9 0.5026 2.0155
3 11 4 2.1315 1.2417
3 11 5 2.1160 -1.0466
3 11 6 -5.0245 0.8404
3 11 7 -0.6435 3.8339
3 11 8 4.2448 4.5101
3 11 9 5.0047 -4.2009
3 11 10 1.5283 0.8929
3 12 3 0.1443 6.7841
3 12 4 -1.0265 -0.4588
3 12 5 2.2986 2.4906
3 12 6 0.4253 -0.4637
3 12 7 1.6503 2.9636
3 12 8 -7.8490 -1.6621
3 12 9 1.8261 4.4700
3 12 10 1.7248 1.3406
3 12 11 1.1483 0.3774
3 13 4 -1.5420 -4.0619
3 13 5 4.9507 -2.7001
3 13 6 0.6648 -4.1070
3 13 7 -1.7168 -2.4135
3 13 8 1.8822 2.9068
3 13 9 -2.2645 5.0560
3 13 10 -2.6817 -1.8720
3 13 11 0.4725 -3.4922
3 13 12 4.1180 4.9020
3 14 3 9.5931 -1.0522
3 14 4 0.3737 1.3989
3 14 5 3.4485 -3.5193
3 14 6 -3.8766 -0.5448
3 14 7 0.2234 -1.2876
3 14 8 -4.0908 1.3160
3 14 9 -4.1793 -1.5615
3 14 10 -1.5962 4.9878
3 14 11 0.9484 0.8008
3 14 12 -0.0484 1.6059
3 14 13 0.7990 -0.1208
3 15 4 -0.3167 3.4942
3 15 5 2.1542 1.5109
3 15 6 -1.1740 0.4333
3 15 7 -1.4036 3.4851
3 15 8 1.2419 4.5006
3 15 9 2.0769 0.6380
3 15 10 -2.0546 -2.1049
3 15 11 2.2772 0.0478
3 15 12 4.8319 -0.0133
3 15 13 1.5763 2.0471
3 15 14 0.3115 1.9014
3 16 3 -6.1024 -2.5465
3 16 4 1.6872 -1.6846
3 16 5 2.8955 -6.6157
3 16 6 -4.9379 -2.7432
3 16 7 3.3477 -2.0449
3 16 8 4.7970 -2.5851
3 16 9 -4.2336 -8.6655
3 16 10 4.8007 1.4031
3 16 11 4.4401 0.1339
3 16 12 -1.8936 -0.1693
3 16 13 -2.9651 1.6623
3 16 14 0.3490 2.9471
3 16 15 -0.6885 1.8363
3 17 4 -2.4519 2.3702
3 17 5 5.4154 -3.1603
3 17 6 -1.4540 -1.3262
3 17 7 3.7697 2.1259
3 17 8 -7.2754 -0.7804
3 17 9 6.5439 -1.6110
3 17 10 -3.5095 -1.5828
3 17 11 1.3178 -1.5632
3 17 12 2.3135 -1.2038
3 17 13 -1.6382 0.0905
3 17 14 -1.9891 0.7005
3 17 15 -0.0867 1.3440
3 17 16 -0.7504 -0.1086
3 18 3 -0.8931 -0.5737
3 18 4 0.0592 2.6168
3 18 5 2.0876 -3.2654
3 18 6 2.3372 1.7790
3 18 7 5.9024 -0.2961
3 18 8 2.1742 -2.8213
3 18 9 -3.2369 -5.3659
3 18 10 2.9793 -0.3709
3 18 11 0.9283 -1.3054
3 18 12 -0.3406 0.6182
3 18 13 1.8591 4.2976
3 18 14 0.3684 1.0792
3 18 15 1.5568 1.7920
3 18 16 1.8928 1.8538
3 18 17 3.3619 1.2739
3 19 4 -1.8730 -2.1593
3 19 5 -1.7821 -1.7349
3 19 6 1.0995 1.4275
3 19 7 0.2434 -0.2426
3 19 8 0.3401 4.6956
3 19 9 -2.6321 -1.5880
3 19 10 -2.1334 -1.0130
3 19 11 1.9319 1.9139
3 19 12 2.3817 1.0396
3 19 13 -1.8195 -3.2115
3 19 14 -1.6444 4.8576
3 19 15 -1.1745 -2.6001
3 19 16 -3.0881 2.4337
3 19 17 1.1682 -1.7743
3 20 3 -3.5003 -2.5751
3 20 4 1.2113 -1.6024
3 20 5 1.2214 -4.2444
3 20 6 0.8652 4.5663
3 20 7 5.2695 -2.2372
3 20 8 -0.5218 -0.5079
3 20 9 -2.2444 3.2748
3 20 10 -1.2554 0.3210
3 20 11 1.5780 3.5876
3 20 12 -0.3902 1.2712
3 20 13 3.8992 -0.0061
3 20 14 0.3649 -0.4785
3 20 15 -2.7517 1.1347
3 20 16 -2.4147 0.1867
3 21 4 1.7637 -1.6550
3 21 5 -1.7087 -2.4799
3 21 6 1.2438 1.8293
3 21 7 -0.7641 1.4134
3 21 8 -1.6114 3.8274
3 21 9 -1.1349 1.5593
3 21 10 0.6466 1.2695
3 21 11 2.9116 1.2080
3 21 12 1.8638 -1.8797
3 21 13 1.0819 -0.8693
3 21 14 -0.0547 -1.1679
3 21 15 -0.4168 2.0815
3 22 3 -0.0425 2.0313
3 22 4 -1.8477 0.6597
3 22 5 1.2681 -0.6919
3 22 6 -2.7517 -1.6689
3 22 7 -0.3199 -1.4860
3 22 8 -1.3052 -0.6955
3 22 9 0.7208 0.7332
3 22 10 -0.4278 1.0667
3 22 11 3.6788 1.2067
3 22 12 -1.4521 0.0273
3 22 13 -0.0528 -1.2007
3 23 4 1.1994 -0.4484
3 23 5 0.1437 -3.5787
3 23 6 1.0331 -2.1762
3 23 7 -0.5580 1.8374
3 23 8 1.4801 1.7824
3 23 9 0.1119 -0.8304
3 23 10 2.7195 0.3848
3 23 11 0.9347 -0.8009
3 23 12 0.9223 -0.2627
3 24 3 1.1986 2.3462
3 24 4 2.4889 0.7801
3 24 5 1.3693 0.3521
3 24 6 -2.8566 0.9046
3 24 7 -0.4295 -0.4225
3 24 8 -2.0270 -0.3542
3 24 9 -1.2686 0.6497
3 25 4 1.2652 0.7128
3 25 5 0.3199 -0.9494
3 25 6 1.5994 0.6887
3 25 7 -0.6541 2.3124
4 4 4 -21.4996 3.1754
4 5 5 4.4668 -2.6906
4 6 4 -2.9785 0.6636
4 6 5 -1.0284 0.2331
4 6 6 3.2296 4.6866
4 7 5 13.5500 4.3389
4 7 6 -3.0614 2.8413
4 7 7 2.6291 1.3350
4 8 4 -3.3295 -0.0473
4 8 5 4.9545 4.6048
4 8 6 0.5365 -2.4154
4 8 7 -3.8107 0.3771
4 8 8 -4.7193 8.8553
4 9 5 3.9334 -4.1744
4 9 6 -4.3728 -0.4317
4 9 7 -3.0007 2.8299
4 9 8 5.7307 -0.5249
4 9 9 -0.9879 3.2333
4 10 4 5.2520 -3.1857
4 10 5 5.6195 1.7115
4 10 6 5.6308 -1.7966
4 10 7 -1.7081 -0.8713
4 10 8 8.3832 -4.5252
4 10 9 -8.6759 -0.3727
4 10 10 -4.5022 0.6221
4 11 5 -0.0184 -3.8524
4 11 6 -0.3372 0.5612
4 11 7 -2.7897 -2.0769
4 11 8 -1.2449 1.7610
4 11 9 -1.6553 -0.0014
4 11 10 0.8625 -4.2000
4 11 11 -0.1180 -0.3567
4 12 4 -2.1869 2.8808
4 12 5 -2.8809 10.5059
4 12 6 -0.0004 -0.2262
4 12 7 -0.2643 4.8477
4 12 8 1.2129 -0.0478
4 12 9 -3.7008 -1.5522
4 12 10 0.9119 0.5323
4 12 11 4.0635 -1.7490
4 12 12 0.5881 -2.4747
4 13 5 -5.2183 2.4184
4 13 6 4.2217 -9.7422
4 13 7 -4.3871 0.7421
4 13 8 -6.0930 5.9456
4 13 9 4.8905 -2.0155
4 13 10 4.5289 -2.4255
4 13 11 -1.0468 -0.1423
4 13 12 4.2691 -0.5363
4 13 13 -1.4798 2.7529
4 14 4 -0.7399 -3.6089
4 14 5 1.7242 1.4036
4 14 6 -1.0438 2.6210
4 14 7 3.5795 -1.4517
4 14 8 2.3824 0.6832
4 14 9 -0.3537 2.4394
4 14 10 -1.5006 3.2535
4 14 11 -2.6125 1.0864
4 14 12 -1.7047 3.6061
4 14 13 -6.9001 2.4443
4 14 14 3.4980 -2.0689
4 15 5 0.2204 -0.6345
4 15 6 -0.8736 2.0115
4 15 7 3.6801 -2.7024
4 15 8 -2.1202 -0.1912
4 15 9 -2.7322 2.8127
4 15 10 -0.7323 1.2778
4 15 11 -11.0026 -2.7384
4 15 12 0.3947 2.8281
4 15 13 -1.2623 0.2926
4 15 14 6.1978 -3.5187
4 15 15 1.7084 0.2697
4 16 4 -1.3790 -1.5715
4 16 5 -4.0474 -1.1799
4 16 6 -0.1003 -2.6543
4 16 7 1.1692 -3.5385
4 16 8 2.4400 -6.0918
4 16 9 2.2835 -1.3826
4 16 10 -3.0064 -5.2126
4 16 11 -4.2257 0.7338
4 16 12 2.1577 2.0157
4 16 13 -0.9477 -0.9188
4 16 14 0.5808 0.5175
4 16 15 4.3077 3.7229
4 16 16 1.1921 1.0394
4 17 5 -0.0416 5.3453
4 17 6 -5.5669 -0.6211
4 17 7 2.2144 0.1505
4 17 8 -3.5097 -0.3381
4 17 9 -0.5201 2.2872
4 17 10 -3.5527 0.1101
4 17 11 1.2415 1.1424
4 17 12 2.4246 2.7628
4 17 13 5.4695 6.3223
4 17 14 6.4528 -0.8216
4 17 15 3.5511 2.8623
4 17 16 -1.0809 -9.2906
4 17 17 0.4491 0.6605
4 18 4 -3.1960 0.3163
4 18 5 2.4642 -0.6666
4 18 6 0.5394 -4.7668
4 18 7 3.7911 -2.4928
4 18 8 0.6695 -1.3681
4 18 9 3.5102 -3.0610
4 18 10 1.3931 -0.7697
4 18 11 -0.8982 -3.4272
4 18 12 2.9585 2.9167
4 18 13 2.0322 -3.2239
4 18 14 -0.1827 0.7768
4 18 15 1.1205 -1.9437
4 18 16 0.7073 3.2621
4 18 17 -0.4893 4.2266
4 18 18 -2.8399 2.0641
4 19 5 -0.1369 2.0742
4 19 6 0.1569 -1.3164
4 19 7 3.5009 -1.0456
4 19 8 0.8998 -2.0050
4 19 9 2.5152 3.8716
4 19 10 -0.3504 -2.4645
4 19 11 2.3453 0.4363
4 19 12 2.1224 -2.5770
4 19 13 0.9504 2.4146
4 19 14 4.0154 0.5995
4 19 15 -2.3761 -5.5673
4 19 16 0.2978 -1.5066
4 19 17 -2.0410 -2.4673
4 20 4 -1.9086 0.5366
4 20 5 -0.9159 -0.0914
4 20 6 -0.2483 -0.7946
4 20 7 -2.1558 -0.7034
4 20 8 0.7622 0.4216
4 20 9 3.3565 2.1266
4 20 10 -0.2246 2.9416
4 20 11 0.2263 0.3191
4 20 12 -0.8988 -0.2876
4 20 13 -1.5163 -0.6521
4 20 14 -1.5953 -0.3017
4 20 15 -4.3025 0.5474
4 20 16 -0.1724 1.6759
4 21 5 -3.5179 2.1933
4 21 6 -1.7181 1.0866
4 21 7 -0.0807 -3.4446
4 21 8 -1.3454 1.9051
4 21 9 0.2398 -0.8050
4 21 10 2.0018 -2.5829
4 21 11 3.3197 -1.2244
4 21 12 2.1328 1.0225
4 21 13 -0.9280 0.7833
4 21 14 -1.3241 2.7521
4 21 15 -3.4289 -0.3506
4 22 4 0.0162 -0.3030
4 22 5 3.8486 1.5918
4 22 6 -0.1742 0.1468
4 22 7 0.2076 1.2675
4 22 8 0.8163 -1.7168
4 22 9 3.3723 0.7303
4 22 10 3.1223 0.4028
4 22 11 1.2040 1.9799
4 22 12 3.4273 -0.7028
4 22 13 3.1746 3.2673
4 23 5 -1.5416 0.9461
4 23 6 2.1060 0.9220
4 23 7 2.5985 4.2553
4 23 8 -1.0124 0.9807
4 23 9 -2.5243 -0.0174
4 23 10 -2.7794 2.3952
4 23 11 -0.6874 -0.3211
4 24 4 1.0199 -1.1111
4 24 5 -0.7860 1.9270
4 24 6 2.0584 1.0833
4 24 7 -0.9119 -0.9255
4 24 8 1.0363 0.7520
4 24 9 0.4002 -0.9004
4 25 5 -1.2022 0.5887
4 25 6 1.2995 0.7110
5 6 5 8.8213 2.9638
5 7 6 3.0070 8.5752
5 8 5 1.3858 -3.3283
5 8 6 0.2909 -3.2221
5 8 7 -5.4560 2.0575
5 9 6 -1.9639 0.1611
5 9 7 0.3239 3.0604
5 9 8 -0.0215 2.9591
5 10 5 -2.8735 -0.9137
5 10 6 -5.3465 8.4107
5 10 7 0.2563 6.5381
5 10 8 4.3102 -0.4648
5 10 9 -0.8243 0.5956
5 11 6 4.2495 -0.2803
5 11 7 -0.0527 8.2771
5 11 8 -0.1718 -2.2573
5 11 9 8.1325 -6.9603
5 11 10 0.4880 -3.4063
5 12 5 -4.6646 0.8165
5 12 6 3.3869 3.1603
5 12 7 -0.3953 2.1447
5 12 8 3.6630 0.4844
5 12 9 2.4254 -0.8483
5 12 10 3.7313 3.4034
5 12 11 4.5653 -1.5050
5 13 6 0.0433 3.4789
5 13 7 -5.5652 -1.7284
5 13 8 0.0462 -1.1866
5 13 9 -0.7859 -3.8985
5 13 10 0.7290 1.7154
5 13 11 0.7846 0.2345
5 13 12 2.2906 2.6046
5 14 5 -4.8199 1.6460
5 14 6 -3.1589 3.4046
5 14 7 -1.2919 1.2949
5 14 8 1.5255 3.7647
5 14 9 -2.8855 0.0847
5 14 10 0.9083 2.7485
5 14 11 -0.9568 -0.4346
5 14 12 3.8594 4.7265
5 14 13 0.9827 -1.1216
5 15 6 1.9708 0.3726
5 15 7 -5.4868 -3.5634
5 15 8 0.0812 0.5497
5 15 9 -5.4225 -5.3022
5 15 10 -2.1781 5.5601
5 15 11 -4.1077 5.1468
5 15 12 -4.1614 -2.8851
5 15 13 0.2775 0.9052
5 15 14 0.4054 0.6141
5 16 5 -0.7224 -3.2747
5 16 6 -2.4796 0.4779
5 16 7 -1.3260 0.7384
5 16 8 -1.4985 -1.4183
5 16 9 -3.5732 -5.3437
5 16 10 -4.1829 -0.7758
5 16 11 -4.8071 0.4206
5 16 12 0.9553 -1.3158
5 16 13 -1.5303 1.9007
5 16 14 -1.8890 -0.7450
5 16 15 0.0175 2.9841
5 17 6 -1.0904 1.2200
5 17 7 1.2725 -0.4398
5 17 8 -2.0114 -7.2605
5 17 9 1.2077 -5.4702
5 17 10 3.1179 -0.7022
5 17 11 -2.2829 3.5023
5 17 12 -1.6671 -2.5313
5 17 13 1.4332 -1.2291
5 17 14 1.7708 0.0920
5 17 15 1.6323 1.7717
5 17 16 -0.4354 -2.3412
5 18 5 -2.1753 -2.2056
5 18 6 2.4670 -0.0105
5 18 7 1.0840 1.1338
5 18 8 -0.2902 -1.1436
5 18 9 4.9267 -4.3670
5 18 10 -6.0560 -2.3038
5 18 11 0.5704 -1.1226
5 18 12 1.1780 -0.2899
5 18 13 -1.9992 0.5646
5 18 14 -3.2078 -1.6653
5 18 15 -0.2456 0.6675
5 18 16 0.0192 1.5858
5 18 17 -0.6357 -0.3461
5 19 6 0.2147 2.4634
5 19 7 0.1263 3.1272
5 19 8 -5.1438 -4.7704
5 19 9 -0.9511 0.7887
5 19 10 -0.7187 -3.7978
5 19 11 0.9312 0.0055
5 19 12 3.6344 1.0484
5 19 13 -0.5741 -0.2815
5 19 14 1.1693 1.7598
5 19 15 0.2080 -0.0030
5 19 16 -0.6793 -3.2706
5 19 17 -0.7023 -0.0367
5 20 5 -5.0667 3.1274
5 20 6 0.4919 0.1259
5 20 7 1.8109 0.7212
5 20 8 -0.4267 2.5103
5 20 9 -0.5555 2.9313
5 20 10 -1.5584 -5.0887
5 20 11 -0.0738 0.4742
5 20 12 1.0091 0.6836
5 20 13 -0.8791 -1.1398
5 20 14 1.5780 1.4444
5 20 15 -4.5066 2.6778
5 20 16 3.5671 0.1624
5 21 6 2.7500 -1.3896
5 21 7 0.4597 -1.4867
5 21 8 0.6069 -0.6794
5 21 9 -0.2124 -1.1327
5 21 10 0.1180 1.6905
5 21 11 -2.8326 -1.7566
5 21 12 1.9632 -0.6829
5 21 13 -2.0157 0.8348
5 21 14 -1.1845 0.4326
5 22 5 -5.1902 0.0804
5 22 6 -3.7980 -5.4969
5 22 7 0.9772 0.0155
5 22 8 4.4835 -3.5524
5 22 9 0.6998 2.6778
5 22 10 0.6686 -1.4364
5 22 11 -0.5679 -0.3490
5 22 12 -2.0091 2.4503
5 22 13 -0.2381 -0.8579
5 23 6 -1.8323 -1.1929
5 23 7 -0.7005 2.7484
5 23 8 0.1868 1.9762
5 23 9 0.3035 -0.5122
5 23 10 -1.2830 2.7783
5 23 11 0.5224 0.4521
5 24 5 -0.9419 -1.4769
5 24 6 -1.7038 -1.3252
5 24 7 1.2402 0.0224
5 24 8 3.6699 1.8614
5 24 9 -1.3998 -2.3589
6 6 6 -6.6299 5.3331
6 7 7 5.5925 -3.5482
6 8 6 -3.1599 0.1134
6 8 7 -12.5477 -1.7414
6 8 8 1.9403 0.5892
6 9 7 -0.1238 -1.2342
6 9 8 1.6655 8.9680
6 9 9 -7.8317 -4.3227
6 10 6 0.1806 3.1857
6 10 7 -12.8695 2.3776
6 10 8 -0.6734 1.8073
6 10 9 -11.3653 9.7121
6 10 10 -4.0598 5.5420
6 11 7 -0.5082 -2.4037
6 11 8 0.7705 6.9221
6 11 9 -3.8851 -1.5142
6 11 10 3.5417 -5.4664
6 11 11 5.4389 -1.8542
6 12 6 -0.0899 -0.6152
6 12 7 -0.9464 -1.6113
6 12 8 0.6250 1.1835
6 12 9 -1.7754 1.5926
6 12 10 4.9145 -2.7668
6 12 11 -0.7350 3.3591
6 12 12 -0.7286 -0.9397
6 13 7 -0.2108 -0.2133
6 13 8 -9.4277 0.4361
6 13 9 -0.9897 0.0133
6 13 10 -0.3873 -1.0594
6 13 11 -2.8288 1.0948
6 13 12 -2.0579 0.6390
6 13 13 1.8583 0.9120
6 14 6 -2.3465 2.1360
6 14 7 2.2293 0.0407
6 14 8 -0.5617 -1.2900
6 14 9 -0.2336 1.1363
6 14 10 3.3322 -2.7663
6 14 11 2.0792 2.0065
6 14 12 -1.2701 4.3287
6 14 13 -0.5525 -1.4239
6 14 14 -5.2498 -4.9733
6 15 7 -0.4651 -3.9031
6 15 8 1.6040 -8.5734
6 15 9 3.6024 3.1712
6 15 10 4.9569 1.7342
6 15 11 3.1503 6.7570
6 15 12 -1.8304 3.3142
6 15 13 4.5074 2.8241
6 15 14 0.5208 3.2723
6 15 15 -0.8410 0.3662
6 16 6 -9.9903 -1.6735
6 16 7 -4.0894 1.7890
6 16 8 -2.8949 -6.9710
6 16 9 -5.8585 1.8566
6 16 10 -1.9559 -4.1379
6 16 11 -2.4824 1.7722
6 16 12 0.4365 2.8035
6 16 13 0.6579 -2.7184
6 16 14 -4.3150 -1.4178
6 16 15 2.7284 -1.5246
6 16 16 -3.3671 -1.6290
6 17 7 -1.7334 -0.7781
6 17 8 4.3958 -2.7298
6 17 9 4.7113 1.2043
6 17 10 0.3586 1.5648
6 17 11 2.0412 -0.1194
6 17 12 0.8543 -2.5374
6 17 13 3.1037 -1.5041
6 17 14 4.7432 -2.7667
6 17 15 1.8350 -0.8448
6 17 16 -4.6705 -1.4226
6 17 17 -0.9722 -0.9145
6 18 6 -9.9075 3.3084
6 18 7 -0.5643 4.9381
6 18 8 -3.7517 0.0318
6 18 9 -2.0414 1.4058
6 18 10 -1.3209 -1.3113
6 18 11 -0.8692 -2.1786
6 18 12 -1.6248 -1.9251
6 18 13 5.5269 0.5933
6 18 14 0.3315 -3.2428
6 18 15 -1.3980 1.1320
6 18 16 -0.5601 -3.0217
6 18 17 -1.2253 -2.0304
6 19 7 2.3537 4.6212
6 19 8 0.1801 -1.5482
6 19 9 4.2885 -0.5466
6 19 10 -0.3217 -0.4233
6 19 11 2.8659 -3.5435
6 19 12 -2.5123 -2.0789
6 19 13 -0.8135 -0.8257
6 19 14 2.4385 0.2511
6 19 15 1.2758 -2.4985
6 19 16 -1.2883 1.1574
6 20 6 1.3822 2.9352
6 20 7 -0.6244 -0.7319
6 20 8 0.6351 -2.6230
6 20 9 -0.1483 -0.6860
6 20 10 -0.7902 -2.2239
6 20 11 -0.3527 -1.9226
6 20 12 -0.5612 0.4458
6 20 13 -1.8831 -1.5175
6 20 14 0.1172 -0.9225
6 20 15 -2.4163 3.3222
6 21 7 1.1737 0.3511
6 21 8 0.6331 0.3140
6 21 9 -2.1639 -0.3289
6 21 10 3.0859 0.4595
6 21 11 0.4867 -0.0823
6 21 12 -1.2554 0.4321
6 21 13 -3.2453 2.4435
6 21 14 -1.0170 1.0125
6 22 6 0.2629 -3.4651
6 22 7 1.0089 2.2014
6 22 8 -0.9747 -1.3412
6 22 9 -0.8079 -1.4121
6 22 10 -1.9747 0.8535
6 22 11 1.1715 0.6427
6 22 12 0.4335 0.3621
6 23 7 -0.2631 0.2206
6 23 8 1.8809 -1.9343
6 23 9 -0.0445 0.8325
6 23 10 1.1601 0.4455
6 24 6 0.4803 -0.4677
6 24 7 0.9046 -2.4724
6 24 8 -0.1183 -1.2569
7 8 7 0.9111 -5.1301
7 9 8 -1.2663 3.7675
7 10 7 -2.1100 -2.3783
7 10 8 17.1319 -8.2119
7 10 9 0.9428 0.0113
7 11 8 -5.7325 0.7318
7 11 9 2.5730 -5.1390
7 11 10 -2.9546 0.9118
7 12 7 -0.0953 0.1530
7 12 8 10.0309 3.1327
7 12 9 -4.6979 0.1358
7 12 10 2.5561 4.3121
7 12 11 -3.6900 -4.6896
7 13 8 2.0835 2.1664
7 13 9 1.8806 -0.8607
7 13 10 1.9511 -0.1545
7 13 11 3.8354 -0.2022
7 13 12 0.5646 -3.3722
7 14 7 2.8087 -0.5675
7 14 8 4.5281 -2.0011
7 14 9 0.7468 1.8170
7 14 10 -1.3308 -1.2520
7 14 11 3.4993 -4.2257
7 14 12 -2.5908 4.6063
7 14 13 -0.5225 -1.7741
7 15 8 -3.2858 0.2895
7 15 9 -3.9343 0.5694
7 15 10 1.4283 3.5376
7 15 11 -0.1840 -0.1391
7 15 12 -2.8325 -2.4484
7 15 13 2.1941 -2.3352
7 15 14 -0.6997 -1.7400
7 16 7 1.2630 2.4039
7 16 8 4.0846 0.0161
7 16 9 5.9256 1.7006
7 16 10 3.5223 0.2532
7 16 11 2.0538 2.5840
7 16 12 0.3824 -1.2418
7 16 13 0.6473 -4.5201
7 16 14 -3.2843 -3.3597
7 16 15 0.0874 -1.5528
7 17 8 -1.1666 0.5638
7 17 9 4.7661 -4.2537
7 17 10 0.4735 3.7770
7 17 11 3.1550 -1.6796
7 17 12 -3.3450 -1.8966
7 17 13 -0.5732 -1.3874
7 17 14 -3.4478 -1.4426
7 17 15 0.6124 -1.0840
7 17 16 -5.0558 -2.4303
7 18 7 -0.8294 -3.2515
7 18 8 -2.9548 2.7957
7 18 9 3.9337 -2.2092
7 18 10 0.5855 0.3176
7 18 11 1.0090 2.1829
7 18 12 0.4980 0.1391
7 18 13 1.0611 -2.8379
7 18 14 0.4031 -0.6995
7 18 15 1.1147 1.9044
7 18 16 1.8343 -2.6895
7 18 17 1.8119 0.9166
7 19 8 -2.7112 5.4476
7 19 9 0.8260 -0.1785
7 19 10 -2.6232 -1.2358
7 19 11 0.6337 -2.9911
7 19 12 -0.4371 -0.8124
7 19 13 0.5270 0.6283
7 19 14 -2.2519 -1.7511
7 19 15 -1.1608 0.2758
7 19 16 -1.4246 -3.4411
7 20 8 -2.7398 2.9363
7 20 9 0.1689 -0.0732
7 20 10 -0.1513 -0.4516
7 20 11 0.7905 0.1374
7 20 12 1.2393 0.7277
7 20 13 -0.5077 -0.6701
7 20 14 0.7698 -1.1193
7 20 15 -1.2121 -0.1102
7 21 8 -1.3969 2.9456
7 21 9 -0.0885 -0.6934
7 21 10 0.8854 -2.3619
7 21 11 -0.6996 -0.7632
7 21 12 0.2820 -0.2362
7 21 13 -0.5637 -0.5748
7 22 7 -2.4971 -0.6185
7 22 8 0.1778 -1.7827
7 22 9 1.3349 0.2418
7 22 10 1.2284 2.3156
7 22 11 -0.3540 0.8002
7 22 12 1.5031 2.3876
7 23 8 -0.5518 -1.5983
7 23 9 0.8871 -0.0741
7 23 10 1.8904 1.8931
7 24 7 -0.9850 0.0466
8 8 8 2.0710 -7.0520
8 9 9 0.9463 2.1505
8 10 8 -1.3252 -1.2567
8 10 9 0.0076 10.2544
8 10 10 2.6761 3.2571
8 11 9 0.4394 -1.1818
8 11 10 -4.3401 3.9516
8 11 11 4.0898 1.2942
8 12 8 -2.1330 3.6907
8 12 9 1.7015 0.6579
8 12 10 0.2686 -2.7032
8 12 11 -0.7685 -2.9503
8 12 12 -7.1947 -4.0112
8 13 9 -1.1088 -3.3665
8 13 10 0.6082 1.5264
8 13 11 -3.0537 -0.7867
8 13 12 0.9968 -2.2508
8 13 13 0.9640 5.3788
8 14 9 -0.0244 2.2433
8 14 10 2.8477 -3.1396
8 14 11 -0.5519 0.1536
8 14 12 3.3034 0.3507
8 14 13 -0.1026 0.6374
8 14 14 -0.0870 2.0598
8 15 9 1.3474 -2.7649
8 15 10 4.0998 -2.6067
8 15 11 6.1369 3.5006
8 15 12 0.2335 -1.8150
8 15 13 0.1605 4.9613
8 15 14 -0.7432 3.7224
8 15 15 -3.5753 0.3821
8 16 8 6.1054 -5.6740
8 16 9 6.9461 1.8467
8 16 10 3.1046 0.3330
8 16 11 4.9748 -1.7556
8 16 12 4.4076 5.2943
8 16 13 -1.2995 -0.2434
8 16 14 -6.5968 3.9416
8 16 15 2.8226 -6.5551
8 16 16 -7.6434 -6.1310
8 17 9 -2.5879 -0.0378
8 17 10 1.5631 0.8009
8 17 11 -2.9636 -0.5227
8 17 12 -2.8675 0.4811
8 17 13 -4.6583 -0.1589
8 17 14 0.0460 3.1603
8 17 15 -0.3621 -0.2384
8 17 16 -1.8012 4.9457
8 17 17 4.8604 -2.7431
8 18 8 0.5764 3.3178
8 18 9 5.1616 2.6341
8 18 10 -2.2275 0.8154
8 18 11 2.2151 -5.3849
8 18 12 -0.2161 -1.0803
8 18 13 -0.6398 -0.4259
8 18 14 -3.7834 0.8321
8 18 15 2.3366 -4.3474
8 18 16 -1.7352 -1.7948
8 18 17 2.7428 -4.2541
8 19 9 -1.0654 5.4098
8 19 10 -0.7843 2.4427
8 19 11 1.0696 -1.5106
8 19 12 -0.4662 -0.6593
8 19 13 0.1305 1.1390
8 19 14 -2.0826 -3.0124
8 19 15 0.5587 3.3502
8 19 16 -2.0414 2.3141
8 20 8 0.9766 1.6987
8 20 9 0.1467 1.2697
8 20 10 -1.6697 -2.5122
8 20 11 0.8858 0.1008
8 20 12 1.1646 1.2694
8 20 13 -1.0377 -2.5049
8 20 14 0.3304 0.7647
8 21 9 -1.6793 1.7876
8 21 10 -2.5076 0.0273
8 21 11 0.5543 2.1212
8 21 12 1.0542 -4.0575
8 21 13 1.2436 1.6700
8 22 9 -3.7658 -0.2202
8 22 10 0.8476 -0.9634
8 22 11 0.0519 -0.7308
8 23 9 0.8964 0.0770
9 10 9 4.2138 -3.9708
9 11 10 -3.0537 0.4820
9 12 9 1.0143 -1.2652
9 12 10 4.3753 -1.3378
9 12 11 -0.5291 4.1222
9 13 10 -0.3224 -3.2227
9 13 11 1.7303 2.7496
9 13 12 -1.4193 2.2930
9 14 9 -2.4409 4.6766
9 14 10 4.3703 -3.4081
9 14 11 -2.9469 2.2361
9 14 12 -1.4564 1.9622
9 14 13 -2.3647 0.2752
9 15 10 -0.4833 -2.2256
9 15 11 -0.5530 2.3798
9 15 12 -1.9302 -3.4889
9 15 13 0.2256 -0.9934
9 15 14 0.1070 -4.0091
9 16 9 -4.7005 1.3583
9 16 10 2.6918 -0.6912
9 16 11 -8.8191 2.4461
9 16 12 -1.6975 0.8404
9 16 13 -1.6955 -6.5401
9 16 14 -1.7270 0.0592
9 16 15 0.2719 0.8947
9 17 10 1.1496 6.9548
9 17 11 2.4693 2.0380
9 17 12 0.0564 1.9293
9 17 13 -1.4249 -0.7409
9 17 14 -0.2841 -1.4587
9 17 15 5.4719 -1.5954
9 17 16 -0.8206 1.3094
9 18 9 -0.3849 -2.4874
9 18 10 3.0355 -1.6733
9 18 11 -0.4564 3.0539
9 18 12 -1.4622 0.0430
9 18 13 -2.7683 0.1194
9 18 14 0.4687 1.1075
9 18 15 -2.8534 0.6996
9 18 16 2.3605 -3.2801
9 19 10 4.5243 8.3435
9 19 11 -1.6223 0.1672
9 19 12 -0.0328 1.3241
9 19 13 0.7661 -0.5792
9 19 14 -0.3254 -0.4811
9 19 15 -0.8115 -0.4588
9 20 9 3.2218 3.4135
9 20 10 -3.0512 0.8294
9 20 11 3.3764 0.7332
9 20 12 -1.9033 0.5412
9 20 13 2.7221 -0.8359
9 21 10 -0.0240 1.4677
9 21 11 -0.5061 -0.0745
9 21 12 0.9524 -0.7925
9 22 9 0.8011 -1.3119
9 22 10 -0.9330 4.2697
10 10 10 -2.4527 -4.6448
10 11 11 -3.6704 -0.3691
10 12 10 -1.2722 -2.0218
10 12 11 -0.4721 -3.0573
10 12 12 -1.9373 1.2519
10 13 11 -1.1276 -1.9793
10 13 12 -0.9063 -2.2026
10 13 13 0.5884 0.5443
10 14 10 -1.5027 2.6273
10 14 11 -1.8330 -0.7901
10 14 12 2.8799 1.7056
10 14 13 -1.1971 2.7710
10 14 14 -2.0806 6.8529
10 15 11 -0.8057 -2.1160
10 15 12 0.8631 -0.8701
10 15 13 -1.8472 -1.9262
10 15 14 2.1551 -0.6814
10 15 15 -2.1646 -0.6420
10 16 10 -2.9570 4.1425
10 16 11 1.4929 0.6343
10 16 12 1.6872 4.6437
10 16 13 -1.1324 0.5927
10 16 14 -4.6602 9.5076
10 16 15 3.0653 -0.7712
10 16 16 0.7726 0.3619
10 17 11 -3.3867 -0.8082
10 17 12 -3.4540 0.3444
10 17 13 -6.2325 -2.2314
10 17 14 -1.0287 0.2203
10 17 15 0.1842 -3.5750
10 17 16 -0.6020 1.1887
10 17 17 0.7868 -0.5895
10 18 10 2.8122 0.9221
10 18 11 2.0216 -2.7840
10 18 12 -1.0547 1.9757
10 18 13 -0.6953 -1.4230
10 18 14 -3.3093 2.0815
10 18 15 1.9979 -0.2270
10 18 16 2.1759 -0.9655
10 19 11 1.5889 2.2368
10 19 12 -1.7266 2.2120
10 19 13 0.3663 2.0350
10 19 14 -1.2626 -2.0733
10 20 10 0.7754 -2.7385
10 20 11 1.8154 -0.3684
10 20 12 1.1186 -1.2274
10 20 13 -0.7175 -1.4824
10 21 11 -1.7202 0.9264
11 12 11 1.8607 0.9163
11 13 12 1.1336 0.2688
11 14 11 1.1701 0.5079
11 14 12 0.1741 -0.7670
11 14 13 1.4825 0.9970
11 15 12 0.1890 0.5888
11 15 13 -1.6955 -0.7198
11 15 14 -2.8120 -2.0418
11 16 11 -3.2227 -1.1289
11 16 12 1.3784 -1.1732
11 16 13 1.9178 -4.2417
11 16 14 -0.0911 0.0084
11 16 15 -1.5533 0.6817
11 17 12 0.7146 0.0630
11 17 13 -0.6591 -1.1659
11 17 14 4.0513 -1.4909
11 17 15 -1.5445 -0.3334
11 17 16 0.6863 3.6053
11 18 11 3.2257 1.9132
11 18 12 0.6011 -0.4025
11 18 13 -1.1696 -0.8341
11 18 14 0.9042 2.8683
11 18 15 1.1420 -2.8430
11 19 12 -1.9111 -1.6000
11 19 13 1.5723 3.8088
11 19 14 1.7713 -2.0640
11 20 11 2.3392 -3.6998
11 20 12 0.3834 0.4279
12 12 12 -1.0206 -6.1975
12 13 13 -1.6597 -1.1547
12 14 12 0.3763 -1.8086
12 14 13 1.0868 0.0998
12 14 14 -3.6503 2.7918
12 15 13 -1.2255 1.0971
12 15 14 0.1070 0.6318
12 15 15 -1.6083 2.5251
12 16 12 4.0023 0.6777
12 16 13 0.5524 -0.1779
12 16 14 -0.0809 -0.3606
12 16 15 -1.5181 0.2084
12 16 16 0.4788 -3.9416
12 17 13 0.2022 -0.9613
12 17 14 -0.5530 0.3051
12 17 15 -0.5333 -2.5734
12 18 12 1.8752 -0.3124
12 18 13 2.6933 2.3201
12 18 14 2.3898 -4.3805
12 19 13 0.5273 1.5945
13 14 13 1.3447 2.4776
13 15 14 -0.5729 -2.2404
13 16 13 5.1374 0.4757
13 16 14 -0.5162 0.4773
13 16 15 0.7876 1.8280
13 17 14 1.6573 -0.7907
13 17 15 1.3739 1.9224
13 18 13 2.0841 0.3176
14 14 14 2.5494 -1.5513
14 15 15 0.4343 1.4690
14 16 14 -0.3951 -3.7878
14 16 15 -1.7944 -0.8576
0 0 0 0.0 0.0
;
_shelx_fab_checksum              28535
_olex2_submission_special_instructions 'No special instructions were received'
_oxdiff_exptl_absorpt_empirical_details 
;
Empirical correction (ABSPACK) includes:
- Absorption correction using spherical harmonics
- Frame scaling
;
_oxdiff_exptl_absorpt_empirical_full_max 1.294
_oxdiff_exptl_absorpt_empirical_full_min 0.855
loop_
_twin_individual_id
_twin_individual_mass_fraction_refined
1 0.914(13)
2 0.086(13)

