# CIF file generated by openbabel 2.4.90, see http://openbabel.sf.net
data_I
_chemical_name_common ''
_cell_length_a 20.7004
_cell_length_b 20.7004
_cell_length_c 20.7004
_cell_angle_alpha 90
_cell_angle_beta 90
_cell_angle_gamma 90
_space_group_name_H-M_alt 'P 1'
_space_group_name_Hall 'P 1'
loop_
    _symmetry_equiv_pos_as_xyz
    x,y,z
loop_
    _atom_site_label
    _atom_site_type_symbol
    _atom_site_fract_x
    _atom_site_fract_y
    _atom_site_fract_z
    _atom_site_occupancy
    O0      O    0.17047   0.00000   0.09530   1.000
    O1      O    0.05610   0.94390   0.94390   1.000
    C2      C    0.15360   0.00000   0.84640   1.000
    Zr3     Zr   0.88011   0.00000   0.00000   1.000
    Zr4     Zr   0.00000   0.11989   0.00000   1.000
    Zr5     Zr   0.00000   0.88011   0.00000   1.000
    Zr6     Zr   0.00000   0.00000   0.11989   1.000
    Zr7     Zr   0.00000   0.00000   0.88011   1.000
    Zr8     Zr   0.11989   0.50000   0.50000   1.000
    Zr9     Zr   0.88011   0.50000   0.50000   1.000
    Zr10    Zr   0.00000   0.61989   0.50000   1.000
    Zr11    Zr   0.00000   0.38011   0.50000   1.000
    Zr12    Zr   0.00000   0.50000   0.61989   1.000
    Zr13    Zr   0.00000   0.50000   0.38011   1.000
    Zr14    Zr   0.61989   0.00000   0.50000   1.000
    Zr15    Zr   0.11989   0.00000   0.00000   1.000
    Zr16    Zr   0.38011   0.00000   0.50000   1.000
    Zr17    Zr   0.50000   0.11989   0.50000   1.000
    Zr18    Zr   0.50000   0.88011   0.50000   1.000
    Zr19    Zr   0.50000   0.00000   0.61989   1.000
    Zr20    Zr   0.50000   0.00000   0.38011   1.000
    Zr21    Zr   0.61989   0.50000   0.00000   1.000
    Zr22    Zr   0.38011   0.50000   0.00000   1.000
    Zr23    Zr   0.50000   0.61989   0.00000   1.000
    Zr24    Zr   0.50000   0.38011   0.00000   1.000
    Zr25    Zr   0.50000   0.50000   0.11989   1.000
    Zr26    Zr   0.50000   0.50000   0.88011   1.000
    O27     O    0.05610   0.94390   0.05610   1.000
    O28     O    0.94390   0.94390   0.94390   1.000
    O29     O    0.05610   0.05610   0.94390   1.000
    O30     O    0.05610   0.44390   0.44390   1.000
    O31     O    0.82953   0.00000   0.09530   1.000
    O32     O    0.82953   0.00000   0.90470   1.000
    O33     O    0.17047   0.00000   0.90470   1.000
    O34     O    0.09530   0.17047   0.00000   1.000
    O35     O    0.09530   0.82953   0.00000   1.000
    O36     O    0.90470   0.82953   0.00000   1.000
    O37     O    0.90470   0.17047   0.00000   1.000
    O38     O    0.00000   0.09530   0.17047   1.000
    O39     O    0.00000   0.09530   0.82953   1.000
    O40     O    0.00000   0.90470   0.82953   1.000
    O41     O    0.00000   0.90470   0.17047   1.000
    O42     O    0.00000   0.17047   0.90470   1.000
    O43     O    0.00000   0.82953   0.90470   1.000
    O44     O    0.00000   0.82953   0.09530   1.000
    O45     O    0.00000   0.17047   0.09530   1.000
    O46     O    0.17047   0.09530   0.00000   1.000
    O47     O    0.82953   0.09530   0.00000   1.000
    O48     O    0.82953   0.90470   0.00000   1.000
    O49     O    0.17047   0.90470   0.00000   1.000
    O50     O    0.09530   0.00000   0.82953   1.000
    O51     O    0.09530   0.00000   0.17047   1.000
    O52     O    0.90470   0.00000   0.17047   1.000
    O53     O    0.90470   0.00000   0.82953   1.000
    O54     O    0.17047   0.50000   0.59530   1.000
    O55     O    0.82953   0.50000   0.59530   1.000
    O56     O    0.82953   0.50000   0.40470   1.000
    O57     O    0.17047   0.50000   0.40470   1.000
    O58     O    0.09530   0.67047   0.50000   1.000
    O59     O    0.09530   0.32953   0.50000   1.000
    O60     O    0.90470   0.32953   0.50000   1.000
    O61     O    0.90470   0.67047   0.50000   1.000
    O62     O    0.00000   0.59530   0.67047   1.000
    O63     O    0.00000   0.59530   0.32953   1.000
    O64     O    0.00000   0.40470   0.32953   1.000
    O65     O    0.00000   0.40470   0.67047   1.000
    O66     O    0.00000   0.67047   0.40470   1.000
    O67     O    0.00000   0.32953   0.40470   1.000
    O68     O    0.00000   0.32953   0.59530   1.000
    O69     O    0.00000   0.67047   0.59530   1.000
    O70     O    0.17047   0.59530   0.50000   1.000
    O71     O    0.82953   0.59530   0.50000   1.000
    O72     O    0.82953   0.40470   0.50000   1.000
    O73     O    0.17047   0.40470   0.50000   1.000
    O74     O    0.09530   0.50000   0.32953   1.000
    O75     O    0.09530   0.50000   0.67047   1.000
    O76     O    0.90470   0.50000   0.67047   1.000
    O77     O    0.90470   0.50000   0.32953   1.000
    O78     O    0.67047   0.00000   0.59530   1.000
    O79     O    0.32953   0.00000   0.59530   1.000
    O80     O    0.32953   0.00000   0.40470   1.000
    O81     O    0.67047   0.00000   0.40470   1.000
    O82     O    0.59530   0.17047   0.50000   1.000
    O83     O    0.59530   0.82953   0.50000   1.000
    O84     O    0.40470   0.82953   0.50000   1.000
    O85     O    0.40470   0.17047   0.50000   1.000
    O86     O    0.50000   0.09530   0.67047   1.000
    O87     O    0.50000   0.09530   0.32953   1.000
    O88     O    0.50000   0.90470   0.32953   1.000
    O89     O    0.50000   0.90470   0.67047   1.000
    O90     O    0.50000   0.17047   0.40470   1.000
    O91     O    0.50000   0.82953   0.40470   1.000
    O92     O    0.50000   0.82953   0.59530   1.000
    O93     O    0.50000   0.17047   0.59530   1.000
    O94     O    0.67047   0.09530   0.50000   1.000
    O95     O    0.32953   0.09530   0.50000   1.000
    O96     O    0.32953   0.90470   0.50000   1.000
    O97     O    0.67047   0.90470   0.50000   1.000
    O98     O    0.59530   0.00000   0.32953   1.000
    O99     O    0.59530   0.00000   0.67047   1.000
    O100    O    0.40470   0.00000   0.67047   1.000
    O101    O    0.40470   0.00000   0.32953   1.000
    C102    C    0.50000   0.34640   0.84640   1.000
    C103    C    0.50000   0.65360   0.84640   1.000
    O104    O    0.67047   0.50000   0.09530   1.000
    O105    O    0.32953   0.50000   0.09530   1.000
    O106    O    0.32953   0.50000   0.90470   1.000
    O107    O    0.67047   0.50000   0.90470   1.000
    O108    O    0.59530   0.67047   0.00000   1.000
    O109    O    0.59530   0.32953   0.00000   1.000
    O110    O    0.40470   0.32953   0.00000   1.000
    O111    O    0.40470   0.67047   0.00000   1.000
    O112    O    0.50000   0.59530   0.17047   1.000
    O113    O    0.50000   0.59530   0.82953   1.000
    O114    O    0.50000   0.40470   0.82953   1.000
    O115    O    0.50000   0.40470   0.17047   1.000
    O116    O    0.50000   0.67047   0.90470   1.000
    O117    O    0.50000   0.32953   0.90470   1.000
    O118    O    0.50000   0.32953   0.09530   1.000
    O119    O    0.50000   0.67047   0.09530   1.000
    O120    O    0.67047   0.59530   0.00000   1.000
    O121    O    0.32953   0.59530   0.00000   1.000
    O122    O    0.32953   0.40470   0.00000   1.000
    O123    O    0.67047   0.40470   0.00000   1.000
    O124    O    0.59530   0.50000   0.82953   1.000
    O125    O    0.59530   0.50000   0.17047   1.000
    O126    O    0.40470   0.50000   0.17047   1.000
    O127    O    0.40470   0.50000   0.82953   1.000
    O128    O    0.94390   0.05610   0.94390   1.000
    O129    O    0.94390   0.94390   0.05610   1.000
    O130    O    0.05610   0.05610   0.05610   1.000
    O131    O    0.94390   0.05610   0.05610   1.000
    O132    O    0.94390   0.55610   0.44390   1.000
    O133    O    0.94390   0.44390   0.55610   1.000
    O134    O    0.05610   0.55610   0.55610   1.000
    O135    O    0.94390   0.55610   0.55610   1.000
    O136    O    0.05610   0.44390   0.55610   1.000
    O137    O    0.94390   0.44390   0.44390   1.000
    O138    O    0.05610   0.55610   0.44390   1.000
    O139    O    0.55610   0.94390   0.44390   1.000
    O140    O    0.44390   0.05610   0.44390   1.000
    O141    O    0.44390   0.94390   0.55610   1.000
    O142    O    0.55610   0.05610   0.55610   1.000
    O143    O    0.44390   0.05610   0.55610   1.000
    O144    O    0.55610   0.94390   0.55610   1.000
    O145    O    0.44390   0.94390   0.44390   1.000
    O146    O    0.55610   0.05610   0.44390   1.000
    O147    O    0.55610   0.44390   0.94390   1.000
    O148    O    0.44390   0.55610   0.94390   1.000
    O149    O    0.44390   0.44390   0.05610   1.000
    O150    O    0.55610   0.55610   0.05610   1.000
    O151    O    0.44390   0.55610   0.05610   1.000
    O152    O    0.55610   0.44390   0.05610   1.000
    O153    O    0.44390   0.44390   0.94390   1.000
    O154    O    0.55610   0.55610   0.94390   1.000
    C155    C    0.84640   0.00000   0.84640   1.000
    C156    C    0.84640   0.00000   0.15360   1.000
    C157    C    0.15360   0.00000   0.15360   1.000
    C158    C    0.84640   0.15360   0.00000   1.000
    C159    C    0.84640   0.84640   0.00000   1.000
    C160    C    0.15360   0.84640   0.00000   1.000
    C161    C    0.15360   0.15360   0.00000   1.000
    C162    C    0.00000   0.84640   0.15360   1.000
    C163    C    0.00000   0.84640   0.84640   1.000
    C164    C    0.00000   0.15360   0.84640   1.000
    C165    C    0.00000   0.15360   0.15360   1.000
    C166    C    0.15360   0.50000   0.34640   1.000
    C167    C    0.84640   0.50000   0.34640   1.000
    C168    C    0.84640   0.50000   0.65360   1.000
    C169    C    0.15360   0.50000   0.65360   1.000
    C170    C    0.84640   0.65360   0.50000   1.000
    C171    C    0.84640   0.34640   0.50000   1.000
    C172    C    0.15360   0.34640   0.50000   1.000
    C173    C    0.15360   0.65360   0.50000   1.000
    C174    C    0.00000   0.34640   0.65360   1.000
    C175    C    0.00000   0.34640   0.34640   1.000
    C176    C    0.00000   0.65360   0.34640   1.000
    C177    C    0.00000   0.65360   0.65360   1.000
    C178    C    0.65360   0.00000   0.34640   1.000
    C179    C    0.34640   0.00000   0.34640   1.000
    C180    C    0.34640   0.00000   0.65360   1.000
    C181    C    0.65360   0.00000   0.65360   1.000
    C182    C    0.34640   0.15360   0.50000   1.000
    C183    C    0.34640   0.84640   0.50000   1.000
    C184    C    0.65360   0.84640   0.50000   1.000
    C185    C    0.65360   0.15360   0.50000   1.000
    C186    C    0.50000   0.84640   0.65360   1.000
    C187    C    0.50000   0.84640   0.34640   1.000
    C188    C    0.50000   0.15360   0.34640   1.000
    C189    C    0.50000   0.15360   0.65360   1.000
    C190    C    0.65360   0.50000   0.84640   1.000
    C191    C    0.34640   0.50000   0.84640   1.000
    C192    C    0.34640   0.50000   0.15360   1.000
    C193    C    0.65360   0.50000   0.15360   1.000
    C194    C    0.34640   0.65360   0.00000   1.000
    C195    C    0.34640   0.34640   0.00000   1.000
    C196    C    0.65360   0.34640   0.00000   1.000
    C197    C    0.65360   0.65360   0.00000   1.000
    C198    C    0.50000   0.34640   0.15360   1.000
    C199    C    0.50000   0.65360   0.15360   1.000
loop_
    _geom_bond_atom_site_label_1
    _geom_bond_atom_site_label_2
    _geom_bond_distance
    _geom_bond_site_symmetry_2
    _ccdc_geom_bond_type
    C2     O50       1.25634      .   S
    C2     O33       1.25634      .   S
    O1     Zr15      2.10734  1_566   S
    O1     Zr7       2.10734  1_565   S
    O109   C196      1.25634      .   S
    O109   Zr24      2.23338      .   S
    O49    C160      1.25634      .   S
    O49    Zr15      2.23338  1_565   S
    O48    C159      1.25634      .   S
    O48    Zr3       2.23338  1_565   S
    O47    C158      1.25634      .   S
    O46    C161      1.25634      .   S
    O111   C194      1.25634      .   S
    C160   O35       1.25634      .   S
    C161   O34       1.25634      .   S
    O110   C195      1.25634      .   S
    C158   O37       1.25634      .   S
    Zr15   O27       2.10734  1_545   S
    Zr15   O33       2.23338  1_554   S
    Zr15   O29       2.10734  1_554   S
    O36    C159      1.25634      .   S
    O36    Zr5       2.23338  1_655   S
    O37    Zr4       2.23338  1_655   S
    O120   C197      1.25634      .   S
    O120   Zr21      2.23338      .   S
    O123   C196      1.25634      .   S
    O122   C195      1.25634      .   S
    O121   C194      1.25634      .   S
    O121   Zr22      2.23338      .   S
    C197   O108      1.25634      .   S
    Zr3    O129      2.10734  1_545   S
    Zr3    O32       2.23338  1_554   S
    Zr3    O128      2.10734  1_554   S
    Zr3    O28       2.10734  1_544   S
    Zr4    O131      2.10734  1_455   S
    Zr4    O130      2.10734      .   S
    Zr4    O42       2.23338  1_554   S
    Zr5    O44       2.23338      .   S
    Zr5    O43       2.23338  1_554   S
    Zr5    O28       2.10734  1_454   S
    Zr21   O107      2.23338  1_554   S
    Zr21   O154      2.10734  1_554   S
    Zr21   O147      2.10734  1_554   S
    O108   Zr23      2.23338      .   S
    Zr24   O152      2.10734      .   S
    Zr24   O117      2.23338  1_554   S
    Zr24   O153      2.10734  1_554   S
    Zr24   O147      2.10734  1_554   S
    Zr23   O150      2.10734      .   S
    Zr23   O116      2.23338  1_554   S
    Zr23   O154      2.10734  1_554   S
    Zr23   O148      2.10734  1_554   S
    Zr22   O149      2.10734      .   S
    Zr22   O151      2.10734      .   S
    Zr22   O106      2.23338  1_554   S
    Zr22   O153      2.10734  1_554   S
    Zr22   O148      2.10734  1_554   S
    O149   Zr25      2.10734      .   S
    O150   Zr25      2.10734      .   S
    O151   Zr25      2.10734      .   S
    O152   Zr25      2.10734      .   S
    O27    Zr6       2.10734  1_565   S
    O131   Zr6       2.10734  1_655   S
    O130   Zr6       2.10734      .   S
    O129   Zr6       2.10734  1_665   S
    O118   C198      1.25634      .   S
    O119   C199      1.25634      .   S
    O44    C162      1.25634      .   S
    O104   C193      1.25634      .   S
    O105   C192      1.25634      .   S
    O45    C165      1.25634      .   S
    O31    C156      1.25634      .   S
    O0     C157      1.25634      .   S
    Zr25   O125      2.23338      .   S
    Zr25   O112      2.23338      .   S
    Zr6    O52       2.23338  1_455   S
    Zr6    O41       2.23338  1_545   S
    C156   O52       1.25634      .   S
    C157   O51       1.25634      .   S
    C192   O126      1.25634      .   S
    C193   O125      1.25634      .   S
    C198   O115      1.25634      .   S
    C162   O41       1.25634      .   S
    C165   O38       1.25634      .   S
    C199   O112      1.25634      .   S
    O87    C188      1.25634      .   S
    O77    C167      1.25634      .   S
    O77    Zr13      2.23338  1_655   S
    O98    C178      1.25634      .   S
    O98    Zr20      2.23338      .   S
    O64    C175      1.25634      .   S
    O63    C176      1.25634      .   S
    O63    Zr13      2.23338      .   S
    O74    C166      1.25634      .   S
    O88    C187      1.25634      .   S
    O88    Zr20      2.23338  1_565   S
    O101   C179      1.25634      .   S
    C166   O57       1.25634      .   S
    C188   O90       1.25634      .   S
    C175   O67       1.25634      .   S
    C176   O66       1.25634      .   S
    C167   O56       1.25634      .   S
    C178   O81       1.25634      .   S
    C187   O91       1.25634      .   S
    C179   O80       1.25634      .   S
    Zr20   O139      2.10734  1_545   S
    Zr20   O146      2.10734      .   S
    Zr20   O145      2.10734  1_545   S
    Zr13   O132      2.10734  1_455   S
    Zr13   O137      2.10734  1_455   S
    O139   Zr14      2.10734  1_565   S
    O140   Zr17      2.10734      .   S
    O140   Zr16      2.10734      .   S
    O30    Zr8       2.10734      .   S
    O30    Zr11      2.10734      .   S
    O132   Zr10      2.10734  1_655   S
    O146   Zr14      2.10734      .   S
    O145   Zr16      2.10734  1_565   S
    O137   Zr11      2.10734  1_655   S
    O138   Zr8       2.10734      .   S
    O138   Zr10      2.10734      .   S
    C172   O59       1.25634      .   S
    C172   O73       1.25634      .   S
    O83    Zr18      2.23338      .   S
    O83    C184      1.25634      .   S
    Zr18   O92       2.23338      .   S
    Zr17   O82       2.23338      .   S
    Zr17   O142      2.10734      .   S
    Zr17   O93       2.23338      .   S
    Zr16   O96       2.23338  1_545   S
    Zr16   O141      2.10734  1_545   S
    Zr16   O143      2.10734      .   S
    Zr16   O79       2.23338      .   S
    Zr14   O97       2.23338  1_545   S
    Zr14   O144      2.10734  1_545   S
    Zr14   O78       2.23338      .   S
    O58    C173      1.25634      .   S
    O60    C171      1.25634      .   S
    O60    Zr11      2.23338  1_655   S
    O61    C170      1.25634      .   S
    O61    Zr10      2.23338  1_655   S
    C170   O71       1.25634      .   S
    O70    C173      1.25634      .   S
    O70    Zr8       2.23338      .   S
    C171   O72       1.25634      .   S
    O71    Zr9       2.23338      .   S
    O96    C183      1.25634      .   S
    Zr8    O136      2.10734      .   S
    Zr8    O54       2.23338      .   S
    O82    C185      1.25634      .   S
    Zr9    O55       2.23338      .   S
    Zr10   O134      2.10734      .   S
    Zr10   O135      2.10734  1_455   S
    Zr10   O69       2.23338      .   S
    O84    C183      1.25634      .   S
    O85    C182      1.25634      .   S
    C185   O94       1.25634      .   S
    C184   O97       1.25634      .   S
    Zr11   O133      2.10734  1_455   S
    Zr11   O136      2.10734      .   S
    Zr11   O68       2.23338      .   S
    C182   O95       1.25634      .   S
    O133   Zr12      2.10734  1_655   S
    O134   Zr12      2.10734      .   S
    O135   Zr12      2.10734  1_655   S
    O141   Zr19      2.10734  1_565   S
    O142   Zr19      2.10734      .   S
    O143   Zr19      2.10734      .   S
    O144   Zr19      2.10734  1_565   S
    O68    C174      1.25634      .   S
    O79    C180      1.25634      .   S
    O78    C181      1.25634      .   S
    O69    C177      1.25634      .   S
    O93    C189      1.25634      .   S
    O92    C186      1.25634      .   S
    O55    C168      1.25634      .   S
    O54    C169      1.25634      .   S
    Zr19   O99       2.23338      .   S
    Zr19   O89       2.23338  1_545   S
    Zr12   O76       2.23338  1_455   S
    Zr12   O62       2.23338      .   S
    C168   O76       1.25634      .   S
    C186   O89       1.25634      .   S
    C189   O86       1.25634      .   S
    C169   O75       1.25634      .   S
    C180   O100      1.25634      .   S
    C177   O62       1.25634      .   S
    C174   O65       1.25634      .   S
    C181   O99       1.25634      .   S
    O40    C163      1.25634      .   S
    O40    Zr7       2.23338  1_565   S
    O39    C164      1.25634      .   S
    O53    C155      1.25634      .   S
    O53    Zr7       2.23338  1_655   S
    O114   C102      1.25634      .   S
    O113   C103      1.25634      .   S
    O113   Zr26      2.23338      .   S
    O127   C191      1.25634      .   S
    O124   C190      1.25634      .   S
    O124   Zr26      2.23338      .   S
    C155   O32       1.25634      .   S
    C163   O43       1.25634      .   S
    C164   O42       1.25634      .   S
    C102   O117      1.25634      .   S
    C190   O107      1.25634      .   S
    C191   O106      1.25634      .   S
    C103   O116      1.25634      .   S
    Zr7    O128      2.10734  1_455   S
    Zr7    O29       2.10734      .   S
    O0     Zr15      2.23338      .   S
    O1     Zr5       2.10734  1_556   S
    O31    Zr3       2.23338      .   S
    O34    Zr4       2.23338      .   S
    O35    Zr5       2.23338      .   S
    O38    Zr6       2.23338      .   S
    O39    Zr7       2.23338      .   S
    O45    Zr4       2.23338      .   S
    O46    Zr15      2.23338      .   S
    O47    Zr3       2.23338      .   S
    O50    Zr7       2.23338      .   S
    O51    Zr6       2.23338      .   S
    O56    Zr9       2.23338      .   S
    O57    Zr8       2.23338      .   S
    O58    Zr10      2.23338      .   S
    O59    Zr11      2.23338      .   S
    O64    Zr13      2.23338      .   S
    O65    Zr12      2.23338      .   S
    O66    Zr10      2.23338      .   S
    O67    Zr11      2.23338      .   S
    O72    Zr9       2.23338      .   S
    O73    Zr8       2.23338      .   S
    O74    Zr13      2.23338      .   S
    O75    Zr12      2.23338      .   S
    O80    Zr16      2.23338      .   S
    O81    Zr14      2.23338      .   S
    O84    Zr18      2.23338      .   S
    O85    Zr17      2.23338      .   S
    O86    Zr19      2.23338      .   S
    O87    Zr20      2.23338      .   S
    O90    Zr17      2.23338      .   S
    O91    Zr18      2.23338      .   S
    O94    Zr14      2.23338      .   S
    O95    Zr16      2.23338      .   S
    O100   Zr19      2.23338      .   S
    O101   Zr20      2.23338      .   S
    O104   Zr21      2.23338      .   S
    O105   Zr22      2.23338      .   S
    O110   Zr24      2.23338      .   S
    O111   Zr23      2.23338      .   S
    O114   Zr26      2.23338      .   S
    O115   Zr25      2.23338      .   S
    O118   Zr24      2.23338      .   S
    O119   Zr23      2.23338      .   S
    O122   Zr22      2.23338      .   S
    O123   Zr21      2.23338      .   S
    O126   Zr25      2.23338      .   S
    O127   Zr26      2.23338      .   S
    O128   Zr4       2.10734  1_656   S
    O129   Zr5       2.10734  1_655   S
    O130   Zr15      2.10734      .   S
    O131   Zr3       2.10734      .   S
    O27    Zr5       2.10734      .   S
    O28    Zr7       2.10734  1_665   S
    O29    Zr4       2.10734  1_556   S
    O30    Zr13      2.10734      .   S
    O132   Zr9       2.10734      .   S
    O133   Zr9       2.10734      .   S
    O134   Zr8       2.10734      .   S
    O135   Zr9       2.10734      .   S
    O136   Zr12      2.10734      .   S
    O137   Zr9       2.10734      .   S
    O138   Zr13      2.10734      .   S
    O139   Zr18      2.10734      .   S
    O140   Zr20      2.10734      .   S
    O141   Zr18      2.10734      .   S
    O142   Zr14      2.10734      .   S
    O143   Zr17      2.10734      .   S
    O144   Zr18      2.10734      .   S
    O145   Zr18      2.10734      .   S
    O146   Zr17      2.10734      .   S
    O147   Zr26      2.10734      .   S
    O148   Zr26      2.10734      .   S
    O149   Zr24      2.10734      .   S
    O150   Zr21      2.10734      .   S
    O151   Zr23      2.10734      .   S
    O152   Zr21      2.10734      .   S
    O153   Zr26      2.10734      .   S
    O154   Zr26      2.10734      .   S
