# CIF file generated by openbabel 2.4.90, see http://openbabel.sf.net
data_I
_chemical_name_common ''
_cell_length_a 20.7004
_cell_length_b 20.7004
_cell_length_c 20.7004
_cell_angle_alpha 90
_cell_angle_beta 90
_cell_angle_gamma 90
_space_group_name_H-M_alt 'P 1'
_space_group_name_Hall 'P 1'
loop_
    _symmetry_equiv_pos_as_xyz
    x,y,z
loop_
    _atom_site_label
    _atom_site_type_symbol
    _atom_site_fract_x
    _atom_site_fract_y
    _atom_site_fract_z
    _atom_site_occupancy
    Zr0     Zr   0.11989   0.00000   0.00000   1.000
    Zr1     Zr   0.17047   0.00000   0.09530   1.000
    Zr2     Zr   0.05610   0.94390   0.94390   1.000
    Zr3     Zr   0.15360   0.00000   0.84640   1.000
    Zr4     Zr   0.88011   0.00000   0.00000   1.000
    Zr5     Zr   0.00000   0.11989   0.00000   1.000
    Zr6     Zr   0.00000   0.88011   0.00000   1.000
    Zr7     Zr   0.00000   0.00000   0.11989   1.000
    Zr8     Zr   0.00000   0.00000   0.88011   1.000
    Zr9     Zr   0.11989   0.50000   0.50000   1.000
    Zr10    Zr   0.88011   0.50000   0.50000   1.000
    Zr11    Zr   0.00000   0.61989   0.50000   1.000
    Zr12    Zr   0.00000   0.38011   0.50000   1.000
    Zr13    Zr   0.00000   0.50000   0.61989   1.000
    Zr14    Zr   0.00000   0.50000   0.38011   1.000
    Zr15    Zr   0.61989   0.00000   0.50000   1.000
    Zr16    Zr   0.38011   0.00000   0.50000   1.000
    Zr17    Zr   0.50000   0.11989   0.50000   1.000
    Zr18    Zr   0.50000   0.88011   0.50000   1.000
    Zr19    Zr   0.50000   0.00000   0.61989   1.000
    Zr20    Zr   0.50000   0.00000   0.38011   1.000
    Zr21    Zr   0.61989   0.50000   0.00000   1.000
    Zr22    Zr   0.38011   0.50000   0.00000   1.000
    Zr23    Zr   0.50000   0.61989   0.00000   1.000
    Zr24    Zr   0.50000   0.38011   0.00000   1.000
    Zr25    Zr   0.50000   0.50000   0.11989   1.000
    Zr26    Zr   0.50000   0.50000   0.88011   1.000
    Zr27    Zr   0.82953   0.00000   0.09530   1.000
    Zr28    Zr   0.82953   0.00000   0.90470   1.000
    Zr29    Zr   0.17047   0.00000   0.90470   1.000
    Zr30    Zr   0.09530   0.17047   0.00000   1.000
    Zr31    Zr   0.09530   0.82953   0.00000   1.000
    Zr32    Zr   0.90470   0.82953   0.00000   1.000
    Zr33    Zr   0.90470   0.17047   0.00000   1.000
    Zr34    Zr   0.00000   0.09530   0.17047   1.000
    Zr35    Zr   0.00000   0.09530   0.82953   1.000
    Zr36    Zr   0.00000   0.90470   0.82953   1.000
    Zr37    Zr   0.00000   0.90470   0.17047   1.000
    Zr38    Zr   0.00000   0.17047   0.90470   1.000
    Zr39    Zr   0.00000   0.82953   0.90470   1.000
    Zr40    Zr   0.00000   0.82953   0.09530   1.000
    Zr41    Zr   0.00000   0.17047   0.09530   1.000
    Zr42    Zr   0.17047   0.09530   0.00000   1.000
    Zr43    Zr   0.82953   0.09530   0.00000   1.000
    Zr44    Zr   0.82953   0.90470   0.00000   1.000
    Zr45    Zr   0.17047   0.90470   0.00000   1.000
    Zr46    Zr   0.09530   0.00000   0.82953   1.000
    Zr47    Zr   0.09530   0.00000   0.17047   1.000
    Zr48    Zr   0.90470   0.00000   0.17047   1.000
    Zr49    Zr   0.90470   0.00000   0.82953   1.000
    Zr50    Zr   0.17047   0.50000   0.59530   1.000
    Zr51    Zr   0.82953   0.50000   0.59530   1.000
    Zr52    Zr   0.82953   0.50000   0.40470   1.000
    Zr53    Zr   0.17047   0.50000   0.40470   1.000
    Zr54    Zr   0.09530   0.67047   0.50000   1.000
    Zr55    Zr   0.09530   0.32953   0.50000   1.000
    Zr56    Zr   0.90470   0.32953   0.50000   1.000
    Zr57    Zr   0.90470   0.67047   0.50000   1.000
    Zr58    Zr   0.00000   0.59530   0.67047   1.000
    Zr59    Zr   0.00000   0.59530   0.32953   1.000
    Zr60    Zr   0.00000   0.40470   0.32953   1.000
    Zr61    Zr   0.00000   0.40470   0.67047   1.000
    Zr62    Zr   0.00000   0.67047   0.40470   1.000
    Zr63    Zr   0.00000   0.32953   0.40470   1.000
    Zr64    Zr   0.00000   0.32953   0.59530   1.000
    Zr65    Zr   0.00000   0.67047   0.59530   1.000
    Zr66    Zr   0.17047   0.59530   0.50000   1.000
    Zr67    Zr   0.82953   0.59530   0.50000   1.000
    Zr68    Zr   0.82953   0.40470   0.50000   1.000
    Zr69    Zr   0.17047   0.40470   0.50000   1.000
    Zr70    Zr   0.09530   0.50000   0.32953   1.000
    Zr71    Zr   0.09530   0.50000   0.67047   1.000
    Zr72    Zr   0.90470   0.50000   0.67047   1.000
    Zr73    Zr   0.90470   0.50000   0.32953   1.000
    Zr74    Zr   0.67047   0.00000   0.59530   1.000
    Zr75    Zr   0.32953   0.00000   0.59530   1.000
    Zr76    Zr   0.32953   0.00000   0.40470   1.000
    Zr77    Zr   0.67047   0.00000   0.40470   1.000
    Zr78    Zr   0.59530   0.17047   0.50000   1.000
    Zr79    Zr   0.59530   0.82953   0.50000   1.000
    Zr80    Zr   0.40470   0.82953   0.50000   1.000
    Zr81    Zr   0.40470   0.17047   0.50000   1.000
    Zr82    Zr   0.50000   0.09530   0.67047   1.000
    Zr83    Zr   0.50000   0.09530   0.32953   1.000
    Zr84    Zr   0.50000   0.90470   0.32953   1.000
    Zr85    Zr   0.50000   0.90470   0.67047   1.000
    Zr86    Zr   0.50000   0.17047   0.40470   1.000
    Zr87    Zr   0.50000   0.82953   0.40470   1.000
    Zr88    Zr   0.50000   0.82953   0.59530   1.000
    Zr89    Zr   0.50000   0.17047   0.59530   1.000
    Zr90    Zr   0.67047   0.09530   0.50000   1.000
    Zr91    Zr   0.32953   0.09530   0.50000   1.000
    Zr92    Zr   0.32953   0.90470   0.50000   1.000
    Zr93    Zr   0.67047   0.90470   0.50000   1.000
    Zr94    Zr   0.59530   0.00000   0.32953   1.000
    Zr95    Zr   0.59530   0.00000   0.67047   1.000
    Zr96    Zr   0.40470   0.00000   0.67047   1.000
    Zr97    Zr   0.40470   0.00000   0.32953   1.000
    Zr98    Zr   0.67047   0.50000   0.09530   1.000
    Zr99    Zr   0.32953   0.50000   0.09530   1.000
    Zr100   Zr   0.32953   0.50000   0.90470   1.000
    Zr101   Zr   0.67047   0.50000   0.90470   1.000
    Zr102   Zr   0.59530   0.67047   0.00000   1.000
    Zr103   Zr   0.59530   0.32953   0.00000   1.000
    Zr104   Zr   0.40470   0.32953   0.00000   1.000
    Zr105   Zr   0.40470   0.67047   0.00000   1.000
    Zr106   Zr   0.50000   0.59530   0.17047   1.000
    Zr107   Zr   0.50000   0.59530   0.82953   1.000
    Zr108   Zr   0.50000   0.40470   0.82953   1.000
    Zr109   Zr   0.50000   0.40470   0.17047   1.000
    Zr110   Zr   0.50000   0.67047   0.90470   1.000
    Zr111   Zr   0.50000   0.32953   0.90470   1.000
    Zr112   Zr   0.50000   0.32953   0.09530   1.000
    Zr113   Zr   0.50000   0.67047   0.09530   1.000
    Zr114   Zr   0.67047   0.59530   0.00000   1.000
    Zr115   Zr   0.32953   0.59530   0.00000   1.000
    Zr116   Zr   0.32953   0.40470   0.00000   1.000
    Zr117   Zr   0.67047   0.40470   0.00000   1.000
    Zr118   Zr   0.59530   0.50000   0.82953   1.000
    Zr119   Zr   0.59530   0.50000   0.17047   1.000
    Zr120   Zr   0.40470   0.50000   0.17047   1.000
    Zr121   Zr   0.40470   0.50000   0.82953   1.000
    Zr122   Zr   0.94390   0.05610   0.94390   1.000
    Zr123   Zr   0.94390   0.94390   0.05610   1.000
    Zr124   Zr   0.05610   0.05610   0.05610   1.000
    Zr125   Zr   0.94390   0.05610   0.05610   1.000
    Zr126   Zr   0.05610   0.94390   0.05610   1.000
    Zr127   Zr   0.94390   0.94390   0.94390   1.000
    Zr128   Zr   0.05610   0.05610   0.94390   1.000
    Zr129   Zr   0.05610   0.44390   0.44390   1.000
    Zr130   Zr   0.94390   0.55610   0.44390   1.000
    Zr131   Zr   0.94390   0.44390   0.55610   1.000
    Zr132   Zr   0.05610   0.55610   0.55610   1.000
    Zr133   Zr   0.94390   0.55610   0.55610   1.000
    Zr134   Zr   0.05610   0.44390   0.55610   1.000
    Zr135   Zr   0.94390   0.44390   0.44390   1.000
    Zr136   Zr   0.05610   0.55610   0.44390   1.000
    Zr137   Zr   0.55610   0.94390   0.44390   1.000
    Zr138   Zr   0.44390   0.05610   0.44390   1.000
    Zr139   Zr   0.44390   0.94390   0.55610   1.000
    Zr140   Zr   0.55610   0.05610   0.55610   1.000
    Zr141   Zr   0.44390   0.05610   0.55610   1.000
    Zr142   Zr   0.55610   0.94390   0.55610   1.000
    Zr143   Zr   0.44390   0.94390   0.44390   1.000
    Zr144   Zr   0.55610   0.05610   0.44390   1.000
    Zr145   Zr   0.55610   0.44390   0.94390   1.000
    Zr146   Zr   0.44390   0.55610   0.94390   1.000
    Zr147   Zr   0.44390   0.44390   0.05610   1.000
    Zr148   Zr   0.55610   0.55610   0.05610   1.000
    Zr149   Zr   0.44390   0.55610   0.05610   1.000
    Zr150   Zr   0.55610   0.44390   0.05610   1.000
    Zr151   Zr   0.44390   0.44390   0.94390   1.000
    Zr152   Zr   0.55610   0.55610   0.94390   1.000
    Zr153   Zr   0.84640   0.00000   0.84640   1.000
    Zr154   Zr   0.84640   0.00000   0.15360   1.000
    Zr155   Zr   0.15360   0.00000   0.15360   1.000
    Zr156   Zr   0.84640   0.15360   0.00000   1.000
    Zr157   Zr   0.84640   0.84640   0.00000   1.000
    Zr158   Zr   0.15360   0.84640   0.00000   1.000
    Zr159   Zr   0.15360   0.15360   0.00000   1.000
    Zr160   Zr   0.00000   0.84640   0.15360   1.000
    Zr161   Zr   0.00000   0.84640   0.84640   1.000
    Zr162   Zr   0.00000   0.15360   0.84640   1.000
    Zr163   Zr   0.00000   0.15360   0.15360   1.000
    Zr164   Zr   0.15360   0.50000   0.34640   1.000
    Zr165   Zr   0.84640   0.50000   0.34640   1.000
    Zr166   Zr   0.84640   0.50000   0.65360   1.000
    Zr167   Zr   0.15360   0.50000   0.65360   1.000
    Zr168   Zr   0.84640   0.65360   0.50000   1.000
    Zr169   Zr   0.84640   0.34640   0.50000   1.000
    Zr170   Zr   0.15360   0.34640   0.50000   1.000
    Zr171   Zr   0.15360   0.65360   0.50000   1.000
    Zr172   Zr   0.00000   0.34640   0.65360   1.000
    Zr173   Zr   0.00000   0.34640   0.34640   1.000
    Zr174   Zr   0.00000   0.65360   0.34640   1.000
    Zr175   Zr   0.00000   0.65360   0.65360   1.000
    Zr176   Zr   0.65360   0.00000   0.34640   1.000
    Zr177   Zr   0.34640   0.00000   0.34640   1.000
    Zr178   Zr   0.34640   0.00000   0.65360   1.000
    Zr179   Zr   0.65360   0.00000   0.65360   1.000
    Zr180   Zr   0.34640   0.15360   0.50000   1.000
    Zr181   Zr   0.34640   0.84640   0.50000   1.000
    Zr182   Zr   0.65360   0.84640   0.50000   1.000
    Zr183   Zr   0.65360   0.15360   0.50000   1.000
    Zr184   Zr   0.50000   0.84640   0.65360   1.000
    Zr185   Zr   0.50000   0.84640   0.34640   1.000
    Zr186   Zr   0.50000   0.15360   0.34640   1.000
    Zr187   Zr   0.50000   0.15360   0.65360   1.000
    Zr188   Zr   0.65360   0.50000   0.84640   1.000
    Zr189   Zr   0.34640   0.50000   0.84640   1.000
    Zr190   Zr   0.34640   0.50000   0.15360   1.000
    Zr191   Zr   0.65360   0.50000   0.15360   1.000
    Zr192   Zr   0.34640   0.65360   0.00000   1.000
    Zr193   Zr   0.34640   0.34640   0.00000   1.000
    Zr194   Zr   0.65360   0.34640   0.00000   1.000
    Zr195   Zr   0.65360   0.65360   0.00000   1.000
    Zr196   Zr   0.50000   0.34640   0.15360   1.000
    Zr197   Zr   0.50000   0.34640   0.84640   1.000
    Zr198   Zr   0.50000   0.65360   0.84640   1.000
    Zr199   Zr   0.50000   0.65360   0.15360   1.000
    O200    O    0.12445   0.00000   0.83796   1.000
    O201    O    0.16203   0.00000   0.87555   1.000
    O202    O    0.08800   0.97195   0.97195   1.000
    O203    O    0.02805   0.97195   0.91200   1.000
    O204    O    0.62445   0.33797   0.00000   1.000
    O205    O    0.54765   0.35482   0.00000   1.000
    O206    O    0.16203   0.87555   0.00000   1.000
    O207    O    0.14518   0.95235   0.00000   1.000
    O208    O    0.83796   0.87555   0.00000   1.000
    O209    O    0.85482   0.95235   0.00000   1.000
    O210    O    0.83796   0.12445   0.00000   1.000
    O211    O    0.16203   0.12445   0.00000   1.000
    O212    O    0.37555   0.66204   0.00000   1.000
    O213    O    0.12445   0.83796   0.00000   1.000
    O214    O    0.12445   0.16203   0.00000   1.000
    O215    O    0.37555   0.33797   0.00000   1.000
    O216    O    0.87555   0.16203   0.00000   1.000
    O217    O    0.08800   0.97195   0.02805   1.000
    O218    O    0.14518   0.00000   0.95235   1.000
    O219    O    0.08800   0.02805   0.97195   1.000
    O220    O    0.87555   0.83796   0.00000   1.000
    O221    O    0.95235   0.85482   0.00000   1.000
    O222    O    0.95235   0.14518   0.00000   1.000
    O223    O    0.66204   0.62445   0.00000   1.000
    O224    O    0.64518   0.54765   0.00000   1.000
    O225    O    0.66204   0.37555   0.00000   1.000
    O226    O    0.33797   0.37555   0.00000   1.000
    O227    O    0.33797   0.62445   0.00000   1.000
    O228    O    0.35482   0.54765   0.00000   1.000
    O229    O    0.62445   0.66204   0.00000   1.000
    O230    O    0.91200   0.97195   0.02805   1.000
    O231    O    0.85482   0.00000   0.95235   1.000
    O232    O    0.91200   0.02805   0.97195   1.000
    O233    O    0.91200   0.97195   0.97195   1.000
    O234    O    0.97195   0.08799   0.02805   1.000
    O235    O    0.02805   0.08800   0.02805   1.000
    O236    O    0.00000   0.14518   0.95235   1.000
    O237    O    0.00000   0.85482   0.04765   1.000
    O238    O    0.00000   0.85482   0.95235   1.000
    O239    O    0.97195   0.91200   0.97195   1.000
    O240    O    0.64518   0.50000   0.95235   1.000
    O241    O    0.58799   0.52805   0.97195   1.000
    O242    O    0.58799   0.47195   0.97195   1.000
    O243    O    0.54765   0.64518   0.00000   1.000
    O244    O    0.52805   0.41201   0.02805   1.000
    O245    O    0.50000   0.35482   0.95235   1.000
    O246    O    0.47195   0.41201   0.97195   1.000
    O247    O    0.52805   0.41201   0.97195   1.000
    O248    O    0.52805   0.58799   0.02805   1.000
    O249    O    0.50000   0.64518   0.95235   1.000
    O250    O    0.52805   0.58799   0.97195   1.000
    O251    O    0.47195   0.58799   0.97195   1.000
    O252    O    0.41200   0.47195   0.02805   1.000
    O253    O    0.41200   0.52805   0.02805   1.000
    O254    O    0.35482   0.50000   0.95235   1.000
    O255    O    0.41200   0.47195   0.97195   1.000
    O256    O    0.41200   0.52805   0.97195   1.000
    O257    O    0.47195   0.47195   0.08800   1.000
    O258    O    0.52805   0.52805   0.08800   1.000
    O259    O    0.47195   0.52805   0.08800   1.000
    O260    O    0.52805   0.47195   0.08800   1.000
    O261    O    0.02805   0.97195   0.08800   1.000
    O262    O    0.97195   0.02805   0.08800   1.000
    O263    O    0.02805   0.02805   0.08800   1.000
    O264    O    0.97195   0.97195   0.08800   1.000
    O265    O    0.50000   0.33797   0.12445   1.000
    O266    O    0.50000   0.66204   0.12445   1.000
    O267    O    0.00000   0.83796   0.12445   1.000
    O268    O    0.66204   0.50000   0.12445   1.000
    O269    O    0.33797   0.50000   0.12445   1.000
    O270    O    0.00000   0.16203   0.12445   1.000
    O271    O    0.83796   0.00000   0.12445   1.000
    O272    O    0.16203   0.00000   0.12445   1.000
    O273    O    0.54765   0.50000   0.14518   1.000
    O274    O    0.50000   0.54765   0.14518   1.000
    O275    O    0.95235   0.00000   0.14518   1.000
    O276    O    0.00000   0.95235   0.14518   1.000
    O277    O    0.87555   0.00000   0.16203   1.000
    O278    O    0.12445   0.00000   0.16203   1.000
    O279    O    0.37555   0.50000   0.16203   1.000
    O280    O    0.62445   0.50000   0.16203   1.000
    O281    O    0.50000   0.37555   0.16203   1.000
    O282    O    0.00000   0.87555   0.16203   1.000
    O283    O    0.00000   0.12445   0.16203   1.000
    O284    O    0.50000   0.62445   0.16203   1.000
    O285    O    0.50000   0.12445   0.33797   1.000
    O286    O    0.87555   0.50000   0.33797   1.000
    O287    O    0.95235   0.50000   0.35482   1.000
    O288    O    0.62445   0.00000   0.33797   1.000
    O289    O    0.54765   0.00000   0.35482   1.000
    O290    O    0.00000   0.37555   0.33797   1.000
    O291    O    0.00000   0.62445   0.33797   1.000
    O292    O    0.00000   0.54765   0.35482   1.000
    O293    O    0.12445   0.50000   0.33797   1.000
    O294    O    0.50000   0.87555   0.33797   1.000
    O295    O    0.50000   0.95235   0.35482   1.000
    O296    O    0.37555   0.00000   0.33797   1.000
    O297    O    0.16203   0.50000   0.37555   1.000
    O298    O    0.50000   0.16203   0.37555   1.000
    O299    O    0.00000   0.33797   0.37555   1.000
    O300    O    0.00000   0.66204   0.37555   1.000
    O301    O    0.83796   0.50000   0.37555   1.000
    O302    O    0.66204   0.00000   0.37555   1.000
    O303    O    0.50000   0.83796   0.37555   1.000
    O304    O    0.33797   0.00000   0.37555   1.000
    O305    O    0.52805   0.97195   0.41201   1.000
    O306    O    0.52805   0.02805   0.41201   1.000
    O307    O    0.47195   0.97195   0.41201   1.000
    O308    O    0.97195   0.52805   0.41201   1.000
    O309    O    0.97195   0.47195   0.41201   1.000
    O310    O    0.58800   0.97195   0.47195   1.000
    O311    O    0.47195   0.08800   0.47195   1.000
    O312    O    0.41200   0.02805   0.47195   1.000
    O313    O    0.08799   0.47195   0.47195   1.000
    O314    O    0.02805   0.41200   0.47195   1.000
    O315    O    0.97195   0.58799   0.47195   1.000
    O316    O    0.58799   0.02805   0.47195   1.000
    O317    O    0.41200   0.97195   0.47195   1.000
    O318    O    0.97195   0.41200   0.47195   1.000
    O319    O    0.08800   0.52805   0.47195   1.000
    O320    O    0.02805   0.58799   0.47195   1.000
    O321    O    0.12445   0.33797   0.50000   1.000
    O322    O    0.16203   0.37555   0.50000   1.000
    O323    O    0.54765   0.85482   0.50000   1.000
    O324    O    0.62445   0.83796   0.50000   1.000
    O325    O    0.50000   0.85482   0.54765   1.000
    O326    O    0.54765   0.14518   0.50000   1.000
    O327    O    0.52805   0.08800   0.52805   1.000
    O328    O    0.50000   0.14518   0.54765   1.000
    O329    O    0.35482   0.95235   0.50000   1.000
    O330    O    0.41200   0.97195   0.52805   1.000
    O331    O    0.41200   0.02805   0.52805   1.000
    O332    O    0.35482   0.00000   0.54765   1.000
    O333    O    0.64518   0.95235   0.50000   1.000
    O334    O    0.58799   0.97195   0.52805   1.000
    O335    O    0.64518   0.00000   0.54765   1.000
    O336    O    0.12445   0.66204   0.50000   1.000
    O337    O    0.87555   0.33797   0.50000   1.000
    O338    O    0.95235   0.35482   0.50000   1.000
    O339    O    0.87555   0.66204   0.50000   1.000
    O340    O    0.95235   0.64518   0.50000   1.000
    O341    O    0.83796   0.62445   0.50000   1.000
    O342    O    0.16204   0.62445   0.50000   1.000
    O343    O    0.14518   0.54765   0.50000   1.000
    O344    O    0.83796   0.37555   0.50000   1.000
    O345    O    0.85482   0.54765   0.50000   1.000
    O346    O    0.33797   0.87555   0.50000   1.000
    O347    O    0.08800   0.47195   0.52805   1.000
    O348    O    0.14518   0.50000   0.54765   1.000
    O349    O    0.62445   0.16203   0.50000   1.000
    O350    O    0.85482   0.50000   0.54765   1.000
    O351    O    0.02805   0.58799   0.52805   1.000
    O352    O    0.97195   0.58799   0.52805   1.000
    O353    O    0.00000   0.64518   0.54765   1.000
    O354    O    0.37555   0.83796   0.50000   1.000
    O355    O    0.37555   0.16203   0.50000   1.000
    O356    O    0.66204   0.12445   0.50000   1.000
    O357    O    0.66204   0.87555   0.50000   1.000
    O358    O    0.97195   0.41200   0.52805   1.000
    O359    O    0.02805   0.41200   0.52805   1.000
    O360    O    0.00000   0.35482   0.54765   1.000
    O361    O    0.33797   0.12445   0.50000   1.000
    O362    O    0.97195   0.47195   0.58799   1.000
    O363    O    0.02805   0.52805   0.58799   1.000
    O364    O    0.97195   0.52805   0.58799   1.000
    O365    O    0.47195   0.97195   0.58799   1.000
    O366    O    0.52805   0.02805   0.58799   1.000
    O367    O    0.47195   0.02805   0.58799   1.000
    O368    O    0.52805   0.97195   0.58799   1.000
    O369    O    0.00000   0.33797   0.62445   1.000
    O370    O    0.33797   0.00000   0.62445   1.000
    O371    O    0.66204   0.00000   0.62445   1.000
    O372    O    0.00000   0.66204   0.62445   1.000
    O373    O    0.50000   0.16203   0.62445   1.000
    O374    O    0.50000   0.83796   0.62445   1.000
    O375    O    0.83796   0.50000   0.62445   1.000
    O376    O    0.16204   0.50000   0.62445   1.000
    O377    O    0.54765   0.00000   0.64518   1.000
    O378    O    0.50000   0.95235   0.64518   1.000
    O379    O    0.95235   0.50000   0.64518   1.000
    O380    O    0.00000   0.54765   0.64518   1.000
    O381    O    0.87555   0.50000   0.66204   1.000
    O382    O    0.50000   0.87555   0.66204   1.000
    O383    O    0.50000   0.12445   0.66204   1.000
    O384    O    0.12445   0.50000   0.66204   1.000
    O385    O    0.37555   0.00000   0.66204   1.000
    O386    O    0.00000   0.62445   0.66204   1.000
    O387    O    0.00000   0.37555   0.66204   1.000
    O388    O    0.62445   0.00000   0.66204   1.000
    O389    O    0.00000   0.87555   0.83796   1.000
    O390    O    0.00000   0.95235   0.85482   1.000
    O391    O    0.00000   0.12445   0.83796   1.000
    O392    O    0.87555   0.00000   0.83796   1.000
    O393    O    0.95235   0.00000   0.85482   1.000
    O394    O    0.50000   0.37555   0.83796   1.000
    O395    O    0.50000   0.62445   0.83796   1.000
    O396    O    0.50000   0.54765   0.85482   1.000
    O397    O    0.37555   0.50000   0.83796   1.000
    O398    O    0.62445   0.50000   0.83796   1.000
    O399    O    0.54765   0.50000   0.85482   1.000
    O400    O    0.83796   0.00000   0.87555   1.000
    O401    O    0.00000   0.83796   0.87555   1.000
    O402    O    0.00000   0.16203   0.87555   1.000
    O403    O    0.50000   0.33797   0.87555   1.000
    O404    O    0.66204   0.50000   0.87555   1.000
    O405    O    0.33797   0.50000   0.87555   1.000
    O406    O    0.50000   0.66204   0.87555   1.000
    O407    O    0.97195   0.02805   0.91200   1.000
    O408    O    0.02805   0.02805   0.91200   1.000
    O409    O    0.14518   0.00000   0.04765   1.000
    O410    O    0.02805   0.91200   0.97195   1.000
    O411    O    0.85482   0.00000   0.04765   1.000
    O412    O    0.04765   0.14518   0.00000   1.000
    O413    O    0.04765   0.85482   0.00000   1.000
    O414    O    0.00000   0.04765   0.14518   1.000
    O415    O    0.00000   0.04765   0.85482   1.000
    O416    O    0.00000   0.14518   0.04765   1.000
    O417    O    0.14518   0.04765   0.00000   1.000
    O418    O    0.85482   0.04765   0.00000   1.000
    O419    O    0.04765   0.00000   0.85482   1.000
    O420    O    0.04765   0.00000   0.14518   1.000
    O421    O    0.85482   0.50000   0.45235   1.000
    O422    O    0.14518   0.50000   0.45235   1.000
    O423    O    0.04765   0.64518   0.50000   1.000
    O424    O    0.04765   0.35482   0.50000   1.000
    O425    O    0.00000   0.45235   0.35482   1.000
    O426    O    0.00000   0.45235   0.64518   1.000
    O427    O    0.00000   0.64518   0.45235   1.000
    O428    O    0.00000   0.35482   0.45235   1.000
    O429    O    0.85482   0.45235   0.50000   1.000
    O430    O    0.14518   0.45235   0.50000   1.000
    O431    O    0.04765   0.50000   0.35482   1.000
    O432    O    0.04765   0.50000   0.64518   1.000
    O433    O    0.35482   0.00000   0.45235   1.000
    O434    O    0.64518   0.00000   0.45235   1.000
    O435    O    0.45235   0.85482   0.50000   1.000
    O436    O    0.45235   0.14518   0.50000   1.000
    O437    O    0.50000   0.04765   0.64518   1.000
    O438    O    0.50000   0.04765   0.35482   1.000
    O439    O    0.50000   0.14518   0.45235   1.000
    O440    O    0.50000   0.85482   0.45235   1.000
    O441    O    0.64518   0.04765   0.50000   1.000
    O442    O    0.35482   0.04765   0.50000   1.000
    O443    O    0.45235   0.00000   0.64518   1.000
    O444    O    0.45235   0.00000   0.35482   1.000
    O445    O    0.64518   0.50000   0.04765   1.000
    O446    O    0.35482   0.50000   0.04765   1.000
    O447    O    0.45235   0.35482   0.00000   1.000
    O448    O    0.45235   0.64518   0.00000   1.000
    O449    O    0.50000   0.45235   0.85482   1.000
    O450    O    0.50000   0.45235   0.14518   1.000
    O451    O    0.50000   0.35482   0.04765   1.000
    O452    O    0.50000   0.64518   0.04765   1.000
    O453    O    0.35482   0.45235   0.00000   1.000
    O454    O    0.64518   0.45235   0.00000   1.000
    O455    O    0.45235   0.50000   0.14518   1.000
    O456    O    0.45235   0.50000   0.85482   1.000
    O457    O    0.97195   0.08800   0.97195   1.000
    O458    O    0.97195   0.91200   0.02805   1.000
    O459    O    0.08799   0.02805   0.02805   1.000
    O460    O    0.91200   0.02805   0.02805   1.000
    O461    O    0.02805   0.91200   0.02805   1.000
    O462    O    0.97195   0.97195   0.91200   1.000
    O463    O    0.02805   0.08799   0.97195   1.000
    O464    O    0.02805   0.47195   0.41201   1.000
    O465    O    0.91200   0.52805   0.47195   1.000
    O466    O    0.91200   0.47195   0.52805   1.000
    O467    O    0.08799   0.52805   0.52805   1.000
    O468    O    0.91200   0.52805   0.52805   1.000
    O469    O    0.02805   0.47195   0.58799   1.000
    O470    O    0.91200   0.47195   0.47195   1.000
    O471    O    0.02805   0.52805   0.41201   1.000
    O472    O    0.52805   0.91200   0.47195   1.000
    O473    O    0.47195   0.02805   0.41201   1.000
    O474    O    0.47195   0.91200   0.52805   1.000
    O475    O    0.58799   0.02805   0.52805   1.000
    O476    O    0.47195   0.08799   0.52805   1.000
    O477    O    0.52805   0.91200   0.52805   1.000
    O478    O    0.47195   0.91200   0.47195   1.000
    O479    O    0.52805   0.08799   0.47195   1.000
    O480    O    0.52805   0.47195   0.91200   1.000
    O481    O    0.47195   0.52805   0.91200   1.000
    O482    O    0.47195   0.41201   0.02805   1.000
    O483    O    0.58799   0.52805   0.02805   1.000
    O484    O    0.47195   0.58799   0.02805   1.000
    O485    O    0.58799   0.47195   0.02805   1.000
    O486    O    0.47195   0.47195   0.91200   1.000
    O487    O    0.52805   0.52805   0.91200   1.000
    N488    N    0.75000   0.75000   0.50000   1.000
    O489    O    0.71465   0.78535   0.50000   1.000
    O490    O    0.78535   0.71465   0.50000   1.000
    N491    N    0.25000   0.25000   0.50000   1.000
    O492    O    0.21465   0.28535   0.50000   1.000
    O493    O    0.28535   0.21465   0.50000   1.000
    N494    N    0.75000   0.25000   0.50000   1.000
    O495    O    0.78535   0.28535   0.50000   1.000
    O496    O    0.71465   0.21465   0.50000   1.000
    N497    N    0.75000   0.50000   0.75000   1.000
    O498    O    0.71465   0.50000   0.78535   1.000
    O499    O    0.78535   0.50000   0.71465   1.000
    N500    N    0.00000   0.75000   0.75000   1.000
    O501    O    0.00000   0.78535   0.78535   1.000
    O502    O    0.00000   0.71465   0.71465   1.000
    N503    N    0.00000   0.25000   0.75000   1.000
    O504    O    0.00000   0.28535   0.71465   1.000
    O505    O    0.00000   0.21465   0.78535   1.000
    N506    N    0.75000   0.00000   0.75000   1.000
    O507    O    0.71465   0.00000   0.71465   1.000
    O508    O    0.78535   0.00000   0.78535   1.000
    N509    N    0.25000   0.00000   0.75000   1.000
    O510    O    0.21465   0.00000   0.78535   1.000
    O511    O    0.28535   0.00000   0.71465   1.000
    N512    N    0.50000   0.25000   0.75000   1.000
    O513    O    0.50000   0.28535   0.78535   1.000
    O514    O    0.50000   0.21465   0.71465   1.000
    N515    N    0.50000   0.75000   0.75000   1.000
    O516    O    0.50000   0.71465   0.78535   1.000
    O517    O    0.50000   0.78535   0.71465   1.000
    N518    N    0.25000   0.50000   0.75000   1.000
    O519    O    0.21465   0.50000   0.71465   1.000
    O520    O    0.28535   0.50000   0.78535   1.000
    N521    N    0.25000   0.75000   0.50000   1.000
    O522    O    0.28535   0.78535   0.50000   1.000
    O523    O    0.21465   0.71465   0.50000   1.000
    N524    N    0.75000   0.50000   0.25000   1.000
    O525    O    0.71465   0.50000   0.21465   1.000
    O526    O    0.78535   0.50000   0.28535   1.000
    N527    N    0.25000   0.50000   0.25000   1.000
    O528    O    0.21465   0.50000   0.28535   1.000
    O529    O    0.28535   0.50000   0.21465   1.000
    N530    N    0.25000   0.00000   0.25000   1.000
    O531    O    0.21465   0.00000   0.21465   1.000
    O532    O    0.28535   0.00000   0.28535   1.000
    N533    N    0.75000   0.00000   0.25000   1.000
    O534    O    0.78535   0.00000   0.21465   1.000
    O535    O    0.71465   0.00000   0.28535   1.000
    N536    N    0.25000   0.25000   0.00000   1.000
    O537    O    0.28535   0.28535   0.00000   1.000
    O538    O    0.21465   0.21465   0.00000   1.000
    N539    N    0.25000   0.75000   0.00000   1.000
    O540    O    0.21465   0.78535   0.00000   1.000
    O541    O    0.28535   0.71465   0.00000   1.000
    N542    N    0.75000   0.75000   0.00000   1.000
    O543    O    0.78535   0.78535   0.00000   1.000
    O544    O    0.71465   0.71465   0.00000   1.000
    N545    N    0.50000   0.25000   0.25000   1.000
    O546    O    0.50000   0.21465   0.28535   1.000
    O547    O    0.50000   0.28535   0.21465   1.000
    N548    N    0.50000   0.75000   0.25000   1.000
    O549    O    0.50000   0.78535   0.28535   1.000
    O550    O    0.50000   0.71465   0.21465   1.000
    N551    N    0.00000   0.25000   0.25000   1.000
    O552    O    0.00000   0.21465   0.21465   1.000
    O553    O    0.00000   0.28535   0.28535   1.000
    N554    N    0.00000   0.75000   0.25000   1.000
    O555    O    0.00000   0.78535   0.21465   1.000
    O556    O    0.00000   0.71465   0.28535   1.000
    N557    N    0.75000   0.25000   0.00000   1.000
    O558    O    0.71465   0.28535   0.00000   1.000
    O559    O    0.78535   0.21465   0.00000   1.000
loop_
    _geom_bond_atom_site_label_1
    _geom_bond_atom_site_label_2
    _geom_bond_distance
    _geom_bond_site_symmetry_2
    _ccdc_geom_bond_type
    Zr3    O200      0.62817      .   S
    Zr46   O200      0.62817      .   S
    Zr3    O201      0.62817      .   S
    Zr29   O201      0.62817      .   S
    Zr2    O202      1.05367      .   S
    Zr0    O202      1.05367  1_544   S
    Zr2    O203      1.05367      .   S
    Zr8    O203      1.05367  1_545   S
    Zr103  O204      0.62817      .   S
    Zr194  O204      0.62817      .   S
    Zr103  O205      1.11669      .   S
    Zr24   O205      1.11669      .   S
    Zr45   O206      0.62817      .   S
    Zr158  O206      0.62817      .   S
    Zr45   O207      1.11669      .   S
    Zr0    O207      1.11669  1_545   S
    Zr44   O208      0.62817      .   S
    Zr157  O208      0.62817      .   S
    Zr44   O209      1.11669      .   S
    Zr4    O209      1.11669  1_545   S
    Zr43   O210      0.62817      .   S
    Zr156  O210      0.62817      .   S
    Zr42   O211      0.62817      .   S
    Zr159  O211      0.62817      .   S
    Zr105  O212      0.62817      .   S
    Zr192  O212      0.62817      .   S
    Zr158  O213      0.62817      .   S
    Zr31   O213      0.62817      .   S
    Zr159  O214      0.62817      .   S
    Zr30   O214      0.62817      .   S
    Zr104  O215      0.62817      .   S
    Zr193  O215      0.62817      .   S
    Zr156  O216      0.62817      .   S
    Zr33   O216      0.62817      .   S
    Zr0    O217      1.05367  1_545   S
    Zr126  O217      1.05367      .   S
    Zr0    O218      1.11669  1_554   S
    Zr29   O218      1.11669      .   S
    Zr0    O219      1.05367  1_554   S
    Zr128  O219      1.05367      .   S
    Zr32   O220      0.62817      .   S
    Zr157  O220      0.62817      .   S
    Zr32   O221      1.11669      .   S
    Zr6    O221      1.11669  1_455   S
    Zr33   O222      1.11669      .   S
    Zr5    O222      1.11669  1_455   S
    Zr114  O223      0.62817      .   S
    Zr195  O223      0.62817      .   S
    Zr114  O224      1.11669      .   S
    Zr21   O224      1.11669      .   S
    Zr117  O225      0.62817      .   S
    Zr194  O225      0.62817      .   S
    Zr116  O226      0.62817      .   S
    Zr193  O226      0.62817      .   S
    Zr115  O227      0.62817      .   S
    Zr192  O227      0.62817      .   S
    Zr115  O228      1.11669      .   S
    Zr22   O228      1.11669      .   S
    Zr195  O229      0.62817      .   S
    Zr102  O229      0.62817      .   S
    Zr4    O230      1.05367  1_545   S
    Zr123  O230      1.05367      .   S
    Zr4    O231      1.11669  1_554   S
    Zr28   O231      1.11669      .   S
    Zr4    O232      1.05367  1_554   S
    Zr122  O232      1.05367      .   S
    Zr4    O233      1.05367  1_544   S
    Zr127  O233      1.05367      .   S
    Zr5    O234      1.05367  1_455   S
    Zr125  O234      1.05367      .   S
    Zr5    O235      1.05367      .   S
    Zr124  O235      1.05367      .   S
    Zr5    O236      1.11669  1_554   S
    Zr38   O236      1.11669      .   S
    Zr6    O237      1.11669      .   S
    Zr40   O237      1.11669      .   S
    Zr6    O238      1.11669  1_554   S
    Zr39   O238      1.11669      .   S
    Zr6    O239      1.05367  1_454   S
    Zr127  O239      1.05367      .   S
    Zr21   O240      1.11669  1_554   S
    Zr101  O240      1.11669      .   S
    Zr21   O241      1.05367  1_554   S
    Zr152  O241      1.05367      .   S
    Zr21   O242      1.05367  1_554   S
    Zr145  O242      1.05367      .   S
    Zr102  O243      1.11669      .   S
    Zr23   O243      1.11669      .   S
    Zr24   O244      1.05367      .   S
    Zr150  O244      1.05367      .   S
    Zr24   O245      1.11669  1_554   S
    Zr111  O245      1.11669      .   S
    Zr24   O246      1.05367  1_554   S
    Zr151  O246      1.05367      .   S
    Zr24   O247      1.05367  1_554   S
    Zr145  O247      1.05367      .   S
    Zr23   O248      1.05367      .   S
    Zr148  O248      1.05367      .   S
    Zr23   O249      1.11669  1_554   S
    Zr110  O249      1.11669      .   S
    Zr23   O250      1.05367  1_554   S
    Zr152  O250      1.05367      .   S
    Zr23   O251      1.05367  1_554   S
    Zr146  O251      1.05367      .   S
    Zr22   O252      1.05367      .   S
    Zr147  O252      1.05367      .   S
    Zr22   O253      1.05367      .   S
    Zr149  O253      1.05367      .   S
    Zr22   O254      1.11669  1_554   S
    Zr100  O254      1.11669      .   S
    Zr22   O255      1.05367  1_554   S
    Zr151  O255      1.05367      .   S
    Zr22   O256      1.05367  1_554   S
    Zr146  O256      1.05367      .   S
    Zr147  O257      1.05367      .   S
    Zr25   O257      1.05367      .   S
    Zr148  O258      1.05367      .   S
    Zr25   O258      1.05367      .   S
    Zr149  O259      1.05367      .   S
    Zr25   O259      1.05367      .   S
    Zr150  O260      1.05367      .   S
    Zr25   O260      1.05367      .   S
    Zr126  O261      1.05367      .   S
    Zr7    O261      1.05367  1_545   S
    Zr125  O262      1.05367      .   S
    Zr7    O262      1.05367  1_455   S
    Zr124  O263      1.05367      .   S
    Zr7    O263      1.05367      .   S
    Zr123  O264      1.05367      .   S
    Zr7    O264      1.05367  1_445   S
    Zr112  O265      0.62817      .   S
    Zr196  O265      0.62817      .   S
    Zr113  O266      0.62817      .   S
    Zr199  O266      0.62817      .   S
    Zr40   O267      0.62817      .   S
    Zr160  O267      0.62817      .   S
    Zr98   O268      0.62817      .   S
    Zr191  O268      0.62817      .   S
    Zr99   O269      0.62817      .   S
    Zr190  O269      0.62817      .   S
    Zr41   O270      0.62817      .   S
    Zr163  O270      0.62817      .   S
    Zr27   O271      0.62817      .   S
    Zr154  O271      0.62817      .   S
    Zr1    O272      0.62817      .   S
    Zr155  O272      0.62817      .   S
    Zr25   O273      1.11669      .   S
    Zr119  O273      1.11669      .   S
    Zr25   O274      1.11669      .   S
    Zr106  O274      1.11669      .   S
    Zr7    O275      1.11669  1_455   S
    Zr48   O275      1.11669      .   S
    Zr7    O276      1.11669  1_545   S
    Zr37   O276      1.11669      .   S
    Zr154  O277      0.62817      .   S
    Zr48   O277      0.62817      .   S
    Zr155  O278      0.62817      .   S
    Zr47   O278      0.62817      .   S
    Zr190  O279      0.62817      .   S
    Zr120  O279      0.62817      .   S
    Zr191  O280      0.62817      .   S
    Zr119  O280      0.62817      .   S
    Zr196  O281      0.62817      .   S
    Zr109  O281      0.62817      .   S
    Zr160  O282      0.62817      .   S
    Zr37   O282      0.62817      .   S
    Zr163  O283      0.62817      .   S
    Zr34   O283      0.62817      .   S
    Zr199  O284      0.62817      .   S
    Zr106  O284      0.62817      .   S
    Zr83   O285      0.62817      .   S
    Zr186  O285      0.62817      .   S
    Zr73   O286      0.62817      .   S
    Zr165  O286      0.62817      .   S
    Zr73   O287      1.11669      .   S
    Zr14   O287      1.11669  1_455   S
    Zr94   O288      0.62817      .   S
    Zr176  O288      0.62817      .   S
    Zr94   O289      1.11669      .   S
    Zr20   O289      1.11669      .   S
    Zr60   O290      0.62817      .   S
    Zr173  O290      0.62817      .   S
    Zr59   O291      0.62817      .   S
    Zr174  O291      0.62817      .   S
    Zr59   O292      1.11669      .   S
    Zr14   O292      1.11669      .   S
    Zr70   O293      0.62817      .   S
    Zr164  O293      0.62817      .   S
    Zr84   O294      0.62817      .   S
    Zr185  O294      0.62817      .   S
    Zr84   O295      1.11669      .   S
    Zr20   O295      1.11669  1_545   S
    Zr97   O296      0.62817      .   S
    Zr177  O296      0.62817      .   S
    Zr164  O297      0.62817      .   S
    Zr53   O297      0.62817      .   S
    Zr186  O298      0.62817      .   S
    Zr86   O298      0.62817      .   S
    Zr173  O299      0.62817      .   S
    Zr63   O299      0.62817      .   S
    Zr174  O300      0.62817      .   S
    Zr62   O300      0.62817      .   S
    Zr165  O301      0.62817      .   S
    Zr52   O301      0.62817      .   S
    Zr176  O302      0.62817      .   S
    Zr77   O302      0.62817      .   S
    Zr185  O303      0.62817      .   S
    Zr87   O303      0.62817      .   S
    Zr177  O304      0.62817      .   S
    Zr76   O304      0.62817      .   S
    Zr20   O305      1.05367  1_545   S
    Zr137  O305      1.05367      .   S
    Zr20   O306      1.05367      .   S
    Zr144  O306      1.05367      .   S
    Zr20   O307      1.05367  1_545   S
    Zr143  O307      1.05367      .   S
    Zr14   O308      1.05367  1_455   S
    Zr130  O308      1.05367      .   S
    Zr14   O309      1.05367  1_455   S
    Zr135  O309      1.05367      .   S
    Zr137  O310      1.05367      .   S
    Zr15   O310      1.05367  1_545   S
    Zr138  O311      1.05367      .   S
    Zr17   O311      1.05367      .   S
    Zr138  O312      1.05367      .   S
    Zr16   O312      1.05367      .   S
    Zr129  O313      1.05367      .   S
    Zr9    O313      1.05367      .   S
    Zr129  O314      1.05367      .   S
    Zr12   O314      1.05367      .   S
    Zr130  O315      1.05367      .   S
    Zr11   O315      1.05367  1_455   S
    Zr144  O316      1.05367      .   S
    Zr15   O316      1.05367      .   S
    Zr143  O317      1.05367      .   S
    Zr16   O317      1.05367  1_545   S
    Zr135  O318      1.05367      .   S
    Zr12   O318      1.05367  1_455   S
    Zr136  O319      1.05367      .   S
    Zr9    O319      1.05367      .   S
    Zr136  O320      1.05367      .   S
    Zr11   O320      1.05367      .   S
    Zr170  O321      0.62817      .   S
    Zr55   O321      0.62817      .   S
    Zr170  O322      0.62817      .   S
    Zr69   O322      0.62817      .   S
    Zr79   O323      1.11669      .   S
    Zr18   O323      1.11669      .   S
    Zr79   O324      0.62817      .   S
    Zr182  O324      0.62817      .   S
    Zr18   O325      1.11669      .   S
    Zr88   O325      1.11669      .   S
    Zr17   O326      1.11669      .   S
    Zr78   O326      1.11669      .   S
    Zr17   O327      1.05367      .   S
    Zr140  O327      1.05367      .   S
    Zr17   O328      1.11669      .   S
    Zr89   O328      1.11669      .   S
    Zr16   O329      1.11669  1_545   S
    Zr92   O329      1.11669      .   S
    Zr16   O330      1.05367  1_545   S
    Zr139  O330      1.05367      .   S
    Zr16   O331      1.05367      .   S
    Zr141  O331      1.05367      .   S
    Zr16   O332      1.11669      .   S
    Zr75   O332      1.11669      .   S
    Zr15   O333      1.11669  1_545   S
    Zr93   O333      1.11669      .   S
    Zr15   O334      1.05367  1_545   S
    Zr142  O334      1.05367      .   S
    Zr15   O335      1.11669      .   S
    Zr74   O335      1.11669      .   S
    Zr54   O336      0.62817      .   S
    Zr171  O336      0.62817      .   S
    Zr56   O337      0.62817      .   S
    Zr169  O337      0.62817      .   S
    Zr56   O338      1.11669      .   S
    Zr12   O338      1.11669  1_455   S
    Zr57   O339      0.62817      .   S
    Zr168  O339      0.62817      .   S
    Zr57   O340      1.11669      .   S
    Zr11   O340      1.11669  1_455   S
    Zr168  O341      0.62817      .   S
    Zr67   O341      0.62817      .   S
    Zr66   O342      0.62817      .   S
    Zr171  O342      0.62817      .   S
    Zr66   O343      1.11669      .   S
    Zr9    O343      1.11669      .   S
    Zr169  O344      0.62817      .   S
    Zr68   O344      0.62817      .   S
    Zr67   O345      1.11669      .   S
    Zr10   O345      1.11669      .   S
    Zr92   O346      0.62817      .   S
    Zr181  O346      0.62817      .   S
    Zr9    O347      1.05367      .   S
    Zr134  O347      1.05367      .   S
    Zr9    O348      1.11669      .   S
    Zr50   O348      1.11669      .   S
    Zr78   O349      0.62817      .   S
    Zr183  O349      0.62817      .   S
    Zr10   O350      1.11669      .   S
    Zr51   O350      1.11669      .   S
    Zr11   O351      1.05367      .   S
    Zr132  O351      1.05367      .   S
    Zr11   O352      1.05367  1_455   S
    Zr133  O352      1.05367      .   S
    Zr11   O353      1.11669      .   S
    Zr65   O353      1.11669      .   S
    Zr80   O354      0.62817      .   S
    Zr181  O354      0.62817      .   S
    Zr81   O355      0.62817      .   S
    Zr180  O355      0.62817      .   S
    Zr183  O356      0.62817      .   S
    Zr90   O356      0.62817      .   S
    Zr182  O357      0.62817      .   S
    Zr93   O357      0.62817      .   S
    Zr12   O358      1.05367  1_455   S
    Zr131  O358      1.05367      .   S
    Zr12   O359      1.05367      .   S
    Zr134  O359      1.05367      .   S
    Zr12   O360      1.11669      .   S
    Zr64   O360      1.11669      .   S
    Zr180  O361      0.62817      .   S
    Zr91   O361      0.62817      .   S
    Zr131  O362      1.05367      .   S
    Zr13   O362      1.05367  1_455   S
    Zr132  O363      1.05367      .   S
    Zr13   O363      1.05367      .   S
    Zr133  O364      1.05367      .   S
    Zr13   O364      1.05367  1_455   S
    Zr139  O365      1.05367      .   S
    Zr19   O365      1.05367  1_545   S
    Zr140  O366      1.05367      .   S
    Zr19   O366      1.05367      .   S
    Zr141  O367      1.05367      .   S
    Zr19   O367      1.05367      .   S
    Zr142  O368      1.05367      .   S
    Zr19   O368      1.05367  1_545   S
    Zr64   O369      0.62817      .   S
    Zr172  O369      0.62817      .   S
    Zr75   O370      0.62817      .   S
    Zr178  O370      0.62817      .   S
    Zr74   O371      0.62817      .   S
    Zr179  O371      0.62817      .   S
    Zr65   O372      0.62817      .   S
    Zr175  O372      0.62817      .   S
    Zr89   O373      0.62817      .   S
    Zr187  O373      0.62817      .   S
    Zr88   O374      0.62817      .   S
    Zr184  O374      0.62817      .   S
    Zr51   O375      0.62817      .   S
    Zr166  O375      0.62817      .   S
    Zr50   O376      0.62817      .   S
    Zr167  O376      0.62817      .   S
    Zr19   O377      1.11669      .   S
    Zr95   O377      1.11669      .   S
    Zr19   O378      1.11669  1_545   S
    Zr85   O378      1.11669      .   S
    Zr13   O379      1.11669  1_455   S
    Zr72   O379      1.11669      .   S
    Zr13   O380      1.11669      .   S
    Zr58   O380      1.11669      .   S
    Zr166  O381      0.62817      .   S
    Zr72   O381      0.62817      .   S
    Zr184  O382      0.62817      .   S
    Zr85   O382      0.62817      .   S
    Zr187  O383      0.62817      .   S
    Zr82   O383      0.62817      .   S
    Zr167  O384      0.62817      .   S
    Zr71   O384      0.62817      .   S
    Zr178  O385      0.62817      .   S
    Zr96   O385      0.62817      .   S
    Zr175  O386      0.62817      .   S
    Zr58   O386      0.62817      .   S
    Zr172  O387      0.62817      .   S
    Zr61   O387      0.62817      .   S
    Zr179  O388      0.62817      .   S
    Zr95   O388      0.62817      .   S
    Zr36   O389      0.62817      .   S
    Zr161  O389      0.62817      .   S
    Zr36   O390      1.11669      .   S
    Zr8    O390      1.11669  1_545   S
    Zr35   O391      0.62817      .   S
    Zr162  O391      0.62817      .   S
    Zr49   O392      0.62817      .   S
    Zr153  O392      0.62817      .   S
    Zr49   O393      1.11669      .   S
    Zr8    O393      1.11669  1_455   S
    Zr108  O394      0.62817      .   S
    Zr197  O394      0.62817      .   S
    Zr107  O395      0.62817      .   S
    Zr198  O395      0.62817      .   S
    Zr107  O396      1.11669      .   S
    Zr26   O396      1.11669      .   S
    Zr121  O397      0.62817      .   S
    Zr189  O397      0.62817      .   S
    Zr118  O398      0.62817      .   S
    Zr188  O398      0.62817      .   S
    Zr118  O399      1.11669      .   S
    Zr26   O399      1.11669      .   S
    Zr153  O400      0.62817      .   S
    Zr28   O400      0.62817      .   S
    Zr161  O401      0.62817      .   S
    Zr39   O401      0.62817      .   S
    Zr162  O402      0.62817      .   S
    Zr38   O402      0.62817      .   S
    Zr197  O403      0.62817      .   S
    Zr111  O403      0.62817      .   S
    Zr188  O404      0.62817      .   S
    Zr101  O404      0.62817      .   S
    Zr189  O405      0.62817      .   S
    Zr100  O405      0.62817      .   S
    Zr198  O406      0.62817      .   S
    Zr110  O406      0.62817      .   S
    Zr8    O407      1.05367  1_455   S
    Zr122  O407      1.05367      .   S
    Zr8    O408      1.05367      .   S
    Zr128  O408      1.05367      .   S
    Zr1    O409      1.11669      .   S
    Zr0    O409      1.11669      .   S
    Zr2    O410      1.05367      .   S
    Zr6    O410      1.05367  1_554   S
    Zr27   O411      1.11669      .   S
    Zr4    O411      1.11669      .   S
    Zr30   O412      1.11669      .   S
    Zr5    O412      1.11669      .   S
    Zr31   O413      1.11669      .   S
    Zr6    O413      1.11669      .   S
    Zr34   O414      1.11669      .   S
    Zr7    O414      1.11669      .   S
    Zr35   O415      1.11669      .   S
    Zr8    O415      1.11669      .   S
    Zr41   O416      1.11669      .   S
    Zr5    O416      1.11669      .   S
    Zr42   O417      1.11669      .   S
    Zr0    O417      1.11669      .   S
    Zr43   O418      1.11669      .   S
    Zr4    O418      1.11669      .   S
    Zr46   O419      1.11669      .   S
    Zr8    O419      1.11669      .   S
    Zr47   O420      1.11669      .   S
    Zr7    O420      1.11669      .   S
    Zr52   O421      1.11669      .   S
    Zr10   O421      1.11669      .   S
    Zr53   O422      1.11669      .   S
    Zr9    O422      1.11669      .   S
    Zr54   O423      1.11669      .   S
    Zr11   O423      1.11669      .   S
    Zr55   O424      1.11669      .   S
    Zr12   O424      1.11669      .   S
    Zr60   O425      1.11669      .   S
    Zr14   O425      1.11669      .   S
    Zr61   O426      1.11669      .   S
    Zr13   O426      1.11669      .   S
    Zr62   O427      1.11669      .   S
    Zr11   O427      1.11669      .   S
    Zr63   O428      1.11669      .   S
    Zr12   O428      1.11669      .   S
    Zr68   O429      1.11669      .   S
    Zr10   O429      1.11669      .   S
    Zr69   O430      1.11669      .   S
    Zr9    O430      1.11669      .   S
    Zr70   O431      1.11669      .   S
    Zr14   O431      1.11669      .   S
    Zr71   O432      1.11669      .   S
    Zr13   O432      1.11669      .   S
    Zr76   O433      1.11669      .   S
    Zr16   O433      1.11669      .   S
    Zr77   O434      1.11669      .   S
    Zr15   O434      1.11669      .   S
    Zr80   O435      1.11669      .   S
    Zr18   O435      1.11669      .   S
    Zr81   O436      1.11669      .   S
    Zr17   O436      1.11669      .   S
    Zr82   O437      1.11669      .   S
    Zr19   O437      1.11669      .   S
    Zr83   O438      1.11669      .   S
    Zr20   O438      1.11669      .   S
    Zr86   O439      1.11669      .   S
    Zr17   O439      1.11669      .   S
    Zr87   O440      1.11669      .   S
    Zr18   O440      1.11669      .   S
    Zr90   O441      1.11669      .   S
    Zr15   O441      1.11669      .   S
    Zr91   O442      1.11669      .   S
    Zr16   O442      1.11669      .   S
    Zr96   O443      1.11669      .   S
    Zr19   O443      1.11669      .   S
    Zr97   O444      1.11669      .   S
    Zr20   O444      1.11669      .   S
    Zr98   O445      1.11669      .   S
    Zr21   O445      1.11669      .   S
    Zr99   O446      1.11669      .   S
    Zr22   O446      1.11669      .   S
    Zr104  O447      1.11669      .   S
    Zr24   O447      1.11669      .   S
    Zr105  O448      1.11669      .   S
    Zr23   O448      1.11669      .   S
    Zr108  O449      1.11669      .   S
    Zr26   O449      1.11669      .   S
    Zr109  O450      1.11669      .   S
    Zr25   O450      1.11669      .   S
    Zr112  O451      1.11669      .   S
    Zr24   O451      1.11669      .   S
    Zr113  O452      1.11669      .   S
    Zr23   O452      1.11669      .   S
    Zr116  O453      1.11669      .   S
    Zr22   O453      1.11669      .   S
    Zr117  O454      1.11669      .   S
    Zr21   O454      1.11669      .   S
    Zr120  O455      1.11669      .   S
    Zr25   O455      1.11669      .   S
    Zr121  O456      1.11669      .   S
    Zr26   O456      1.11669      .   S
    Zr122  O457      1.05367      .   S
    Zr5    O457      1.05367  1_454   S
    Zr123  O458      1.05367      .   S
    Zr6    O458      1.05367  1_455   S
    Zr124  O459      1.05367      .   S
    Zr0    O459      1.05367      .   S
    Zr125  O460      1.05367      .   S
    Zr4    O460      1.05367      .   S
    Zr126  O461      1.05367      .   S
    Zr6    O461      1.05367      .   S
    Zr127  O462      1.05367      .   S
    Zr8    O462      1.05367  1_445   S
    Zr128  O463      1.05367      .   S
    Zr5    O463      1.05367  1_554   S
    Zr129  O464      1.05367      .   S
    Zr14   O464      1.05367      .   S
    Zr130  O465      1.05367      .   S
    Zr10   O465      1.05367      .   S
    Zr131  O466      1.05367      .   S
    Zr10   O466      1.05367      .   S
    Zr132  O467      1.05367      .   S
    Zr9    O467      1.05367      .   S
    Zr133  O468      1.05367      .   S
    Zr10   O468      1.05367      .   S
    Zr134  O469      1.05367      .   S
    Zr13   O469      1.05367      .   S
    Zr135  O470      1.05367      .   S
    Zr10   O470      1.05367      .   S
    Zr136  O471      1.05367      .   S
    Zr14   O471      1.05367      .   S
    Zr137  O472      1.05367      .   S
    Zr18   O472      1.05367      .   S
    Zr138  O473      1.05367      .   S
    Zr20   O473      1.05367      .   S
    Zr139  O474      1.05367      .   S
    Zr18   O474      1.05367      .   S
    Zr140  O475      1.05367      .   S
    Zr15   O475      1.05367      .   S
    Zr141  O476      1.05367      .   S
    Zr17   O476      1.05367      .   S
    Zr142  O477      1.05367      .   S
    Zr18   O477      1.05367      .   S
    Zr143  O478      1.05367      .   S
    Zr18   O478      1.05367      .   S
    Zr144  O479      1.05367      .   S
    Zr17   O479      1.05367      .   S
    Zr145  O480      1.05367      .   S
    Zr26   O480      1.05367      .   S
    Zr146  O481      1.05367      .   S
    Zr26   O481      1.05367      .   S
    Zr147  O482      1.05367      .   S
    Zr24   O482      1.05367      .   S
    Zr148  O483      1.05367      .   S
    Zr21   O483      1.05367      .   S
    Zr149  O484      1.05367      .   S
    Zr23   O484      1.05367      .   S
    Zr150  O485      1.05367      .   S
    Zr21   O485      1.05367      .   S
    Zr151  O486      1.05367      .   S
    Zr26   O486      1.05367      .   S
    Zr152  O487      1.05367      .   S
    Zr26   O487      1.05367      .   S
    N488   O489      1.03486      .   S
    Zr182  O489      1.78723      .   S
    N488   O490      1.03486      .   S
    Zr168  O490      1.78723      .   S
    N491   O492      1.03486      .   S
    Zr170  O492      1.78723      .   S
    N491   O493      1.03486      .   S
    Zr180  O493      1.78723      .   S
    N494   O495      1.03486      .   S
    Zr169  O495      1.78723      .   S
    N494   O496      1.03486      .   S
    Zr183  O496      1.78723      .   S
    N497   O498      1.03486      .   S
    Zr188  O498      1.78723      .   S
    N497   O499      1.03486      .   S
    Zr166  O499      1.78723      .   S
    N500   O501      1.03486      .   S
    Zr161  O501      1.78723      .   S
    N500   O502      1.03486      .   S
    Zr175  O502      1.78723      .   S
    N503   O504      1.03486      .   S
    Zr172  O504      1.78723      .   S
    N503   O505      1.03486      .   S
    Zr162  O505      1.78723      .   S
    N506   O507      1.03486      .   S
    Zr179  O507      1.78723      .   S
    N506   O508      1.03486      .   S
    Zr153  O508      1.78723      .   S
    N509   O510      1.03486      .   S
    Zr3    O510      1.78723      .   S
    N509   O511      1.03486      .   S
    Zr178  O511      1.78723      .   S
    N512   O513      1.03486      .   S
    Zr197  O513      1.78723      .   S
    N512   O514      1.03486      .   S
    Zr187  O514      1.78723      .   S
    N515   O516      1.03486      .   S
    Zr198  O516      1.78723      .   S
    N515   O517      1.03486      .   S
    Zr184  O517      1.78723      .   S
    N518   O519      1.03486      .   S
    Zr167  O519      1.78723      .   S
    N518   O520      1.03486      .   S
    Zr189  O520      1.78723      .   S
    N521   O522      1.03486      .   S
    Zr181  O522      1.78723      .   S
    N521   O523      1.03486      .   S
    Zr171  O523      1.78723      .   S
    N524   O525      1.03486      .   S
    Zr191  O525      1.78723      .   S
    N524   O526      1.03486      .   S
    Zr165  O526      1.78723      .   S
    N527   O528      1.03486      .   S
    Zr164  O528      1.78723      .   S
    N527   O529      1.03486      .   S
    Zr190  O529      1.78723      .   S
    N530   O531      1.03486      .   S
    Zr155  O531      1.78723      .   S
    N530   O532      1.03486      .   S
    Zr177  O532      1.78723      .   S
    N533   O534      1.03486      .   S
    Zr154  O534      1.78723      .   S
    N533   O535      1.03486      .   S
    Zr176  O535      1.78723      .   S
    N536   O537      1.03486      .   S
    Zr193  O537      1.78723      .   S
    N536   O538      1.03486      .   S
    Zr159  O538      1.78723      .   S
    N539   O540      1.03486      .   S
    Zr158  O540      1.78723      .   S
    N539   O541      1.03486      .   S
    Zr192  O541      1.78723      .   S
    N542   O543      1.03486      .   S
    Zr157  O543      1.78723      .   S
    N542   O544      1.03486      .   S
    Zr195  O544      1.78723      .   S
    N545   O546      1.03486      .   S
    Zr186  O546      1.78723      .   S
    N545   O547      1.03486      .   S
    Zr196  O547      1.78723      .   S
    N548   O549      1.03486      .   S
    Zr185  O549      1.78723      .   S
    N548   O550      1.03486      .   S
    Zr199  O550      1.78723      .   S
    N551   O552      1.03486      .   S
    Zr163  O552      1.78723      .   S
    N551   O553      1.03486      .   S
    Zr173  O553      1.78723      .   S
    N554   O555      1.03486      .   S
    Zr160  O555      1.78723      .   S
    N554   O556      1.03486      .   S
    Zr174  O556      1.78723      .   S
    N557   O558      1.03486      .   S
    Zr194  O558      1.78723      .   S
    N557   O559      1.03486      .   S
    Zr156  O559      1.78723      .   S
