# CIF file generated by openbabel 2.4.90, see http://openbabel.sf.net
data_I
_chemical_name_common ''
_cell_length_a 20.7004
_cell_length_b 20.7004
_cell_length_c 20.7004
_cell_angle_alpha 90
_cell_angle_beta 90
_cell_angle_gamma 90
_space_group_name_H-M_alt 'P 1'
_space_group_name_Hall 'P 1'
loop_
    _symmetry_equiv_pos_as_xyz
    x,y,z
loop_
    _atom_site_label
    _atom_site_type_symbol
    _atom_site_fract_x
    _atom_site_fract_y
    _atom_site_fract_z
    _atom_site_occupancy
    N0      N    0.75000   0.75000   0.50000   1.000
    N1      N    0.25000   0.25000   0.50000   1.000
    N2      N    0.75000   0.25000   0.50000   1.000
    N3      N    0.75000   0.50000   0.75000   1.000
    N4      N    0.00000   0.75000   0.75000   1.000
    N5      N    0.00000   0.25000   0.75000   1.000
    N6      N    0.75000   0.00000   0.75000   1.000
    N7      N    0.25000   0.00000   0.75000   1.000
    N8      N    0.50000   0.25000   0.75000   1.000
    N9      N    0.50000   0.75000   0.75000   1.000
    N10     N    0.25000   0.50000   0.75000   1.000
    N11     N    0.25000   0.75000   0.50000   1.000
    N12     N    0.75000   0.50000   0.25000   1.000
    N13     N    0.25000   0.50000   0.25000   1.000
    N14     N    0.25000   0.00000   0.25000   1.000
    N15     N    0.75000   0.00000   0.25000   1.000
    N16     N    0.25000   0.25000   0.00000   1.000
    N17     N    0.25000   0.75000   0.00000   1.000
    N18     N    0.75000   0.75000   0.00000   1.000
    N19     N    0.50000   0.25000   0.25000   1.000
    N20     N    0.50000   0.75000   0.25000   1.000
    N21     N    0.00000   0.25000   0.25000   1.000
    N22     N    0.00000   0.75000   0.25000   1.000
    N23     N    0.75000   0.25000   0.00000   1.000
    Zr24    Zr   0.00000   0.50000   0.50000   1.000
    O25     O    0.10732   0.50000   0.39267   1.000
    O26     O    0.89267   0.39267   0.50000   1.000
    O27     O    0.10732   0.39267   0.50000   1.000
    O28     O    0.00000   0.39267   0.39267   1.000
    O29     O    0.00000   0.60732   0.39267   1.000
    O30     O    0.00000   0.60732   0.60732   1.000
    O31     O    0.10732   0.50000   0.60732   1.000
    O32     O    0.89267   0.60732   0.50000   1.000
    O33     O    0.10732   0.60732   0.50000   1.000
    O34     O    0.00000   0.39267   0.60732   1.000
    O35     O    0.89267   0.50000   0.39267   1.000
    O36     O    0.89267   0.50000   0.60732   1.000
    Zr37    Zr   0.00000   0.00000   0.00000   1.000
    O38     O    0.00000   0.10732   0.10732   1.000
    O39     O    0.89267   0.89267   0.00000   1.000
    O40     O    0.10733   0.89267   0.00000   1.000
    O41     O    0.89267   0.00000   0.89267   1.000
    O42     O    0.89267   0.00000   0.10732   1.000
    O43     O    0.00000   0.89267   0.89267   1.000
    O44     O    0.00000   0.10733   0.89267   1.000
    O45     O    0.10732   0.10732   0.00000   1.000
    O46     O    0.00000   0.89267   0.10732   1.000
    O47     O    0.10732   0.00000   0.10732   1.000
    O48     O    0.89267   0.10732   0.00000   1.000
    O49     O    0.10733   0.00000   0.89267   1.000
    Zr50    Zr   0.50000   0.00000   0.50000   1.000
    O51     O    0.60732   0.00000   0.60732   1.000
    O52     O    0.39267   0.10733   0.50000   1.000
    O53     O    0.39267   0.89267   0.50000   1.000
    O54     O    0.60733   0.89267   0.50000   1.000
    O55     O    0.60732   0.00000   0.39267   1.000
    O56     O    0.39267   0.00000   0.39267   1.000
    O57     O    0.39267   0.00000   0.60732   1.000
    O58     O    0.60732   0.10733   0.50000   1.000
    O59     O    0.50000   0.89267   0.60732   1.000
    O60     O    0.50000   0.89267   0.39267   1.000
    O61     O    0.50000   0.10732   0.39267   1.000
    O62     O    0.50000   0.10732   0.60732   1.000
    Zr63    Zr   0.50000   0.50000   0.00000   1.000
    O64     O    0.60732   0.60732   0.00000   1.000
    O65     O    0.50000   0.39267   0.10732   1.000
    O66     O    0.39267   0.50000   0.89267   1.000
    O67     O    0.39267   0.50000   0.10732   1.000
    O68     O    0.60732   0.50000   0.10732   1.000
    O69     O    0.39267   0.60732   0.00000   1.000
    O70     O    0.39267   0.39267   0.00000   1.000
    O71     O    0.60732   0.39267   0.00000   1.000
    O72     O    0.50000   0.60733   0.89267   1.000
    O73     O    0.50000   0.60732   0.10732   1.000
    O74     O    0.60733   0.50000   0.89267   1.000
    O75     O    0.50000   0.39267   0.89267   1.000
loop_
    _geom_bond_atom_site_label_1
    _geom_bond_atom_site_label_2
    _geom_bond_distance
    _geom_bond_site_symmetry_2
    _ccdc_geom_bond_type
    Zr24   O25       3.14192      .   S
    N13    O25       4.17678      .   S
    Zr24   O26       3.14192  1_455   S
    N2     O26       4.17678      .   S
    Zr24   O27       3.14192      .   S
    N1     O27       4.17678      .   S
    Zr24   O28       3.14192      .   S
    N21    O28       4.17678      .   S
    Zr24   O29       3.14192      .   S
    N22    O29       4.17678      .   S
    Zr24   O30       3.14192      .   S
    N4     O30       4.17678      .   S
    Zr24   O31       3.14192      .   S
    N10    O31       4.17678      .   S
    Zr24   O32       3.14192  1_455   S
    N0     O32       4.17678      .   S
    Zr24   O33       3.14192      .   S
    N11    O33       4.17678      .   S
    Zr24   O34       3.14192      .   S
    N5     O34       4.17678      .   S
    Zr24   O35       3.14192  1_455   S
    N12    O35       4.17678      .   S
    Zr24   O36       3.14192  1_455   S
    N3     O36       4.17678      .   S
    Zr37   O38       3.14192      .   S
    N21    O38       4.17678      .   S
    Zr37   O39       3.14192  1_445   S
    N18    O39       4.17678      .   S
    Zr37   O40       3.14192  1_545   S
    N17    O40       4.17678      .   S
    Zr37   O41       3.14192  1_454   S
    N6     O41       4.17678      .   S
    Zr37   O42       3.14192  1_455   S
    N15    O42       4.17678      .   S
    Zr37   O43       3.14192  1_544   S
    N4     O43       4.17678      .   S
    Zr37   O44       3.14192  1_554   S
    N5     O44       4.17678      .   S
    Zr37   O45       3.14192      .   S
    N16    O45       4.17678      .   S
    Zr37   O46       3.14192  1_545   S
    N22    O46       4.17678      .   S
    Zr37   O47       3.14192      .   S
    N14    O47       4.17678      .   S
    Zr37   O48       3.14192  1_455   S
    N23    O48       4.17678      .   S
    Zr37   O49       3.14192  1_554   S
    N7     O49       4.17678      .   S
    Zr50   O51       3.14192      .   S
    N6     O51       4.17678      .   S
    Zr50   O52       3.14192      .   S
    N1     O52       4.17678      .   S
    Zr50   O53       3.14192  1_545   S
    N11    O53       4.17678      .   S
    Zr50   O54       3.14192  1_545   S
    N0     O54       4.17678      .   S
    Zr50   O55       3.14192      .   S
    N15    O55       4.17678      .   S
    Zr50   O56       3.14192      .   S
    N14    O56       4.17678      .   S
    Zr50   O57       3.14192      .   S
    N7     O57       4.17678      .   S
    Zr50   O58       3.14192      .   S
    N2     O58       4.17678      .   S
    Zr50   O59       3.14192  1_545   S
    N9     O59       4.17678      .   S
    Zr50   O60       3.14192  1_545   S
    N20    O60       4.17678      .   S
    Zr50   O61       3.14192      .   S
    N19    O61       4.17678      .   S
    Zr50   O62       3.14192      .   S
    N8     O62       4.17678      .   S
    Zr63   O64       3.14192      .   S
    N18    O64       4.17678      .   S
    Zr63   O65       3.14192      .   S
    N19    O65       4.17678      .   S
    Zr63   O66       3.14192  1_554   S
    N10    O66       4.17678      .   S
    Zr63   O67       3.14192      .   S
    N13    O67       4.17678      .   S
    Zr63   O68       3.14192      .   S
    N12    O68       4.17678      .   S
    Zr63   O69       3.14192      .   S
    N17    O69       4.17678      .   S
    Zr63   O70       3.14192      .   S
    N16    O70       4.17678      .   S
    Zr63   O71       3.14192      .   S
    N23    O71       4.17678      .   S
    Zr63   O72       3.14192  1_554   S
    N9     O72       4.17678      .   S
    Zr63   O73       3.14192      .   S
    N20    O73       4.17678      .   S
    Zr63   O74       3.14192  1_554   S
    N3     O74       4.17678      .   S
    Zr63   O75       3.14192  1_554   S
    N8     O75       4.17678      .   S
