# CIF file generated by openbabel 2.4.90, see http://openbabel.sf.net
data_I
_chemical_name_common ''
_cell_length_a 20.7004
_cell_length_b 20.7004
_cell_length_c 20.7004
_cell_angle_alpha 90
_cell_angle_beta 90
_cell_angle_gamma 90
_space_group_name_H-M_alt 'P 1'
_space_group_name_Hall 'P 1'
loop_
    _symmetry_equiv_pos_as_xyz
    x,y,z
loop_
    _atom_site_label
    _atom_site_type_symbol
    _atom_site_fract_x
    _atom_site_fract_y
    _atom_site_fract_z
    _atom_site_occupancy
    C0      C    0.11989   0.00000   0.00000   1.000
    C1      C    0.17047   0.00000   0.09530   1.000
    C2      C    0.05610   0.94390   0.94390   1.000
    C3      C    0.15360   0.00000   0.84640   1.000
    C4      C    0.20500   0.00000   0.20500   1.000
    C5      C    0.26750   0.00000   0.18440   1.000
    C6      C    0.88011   0.00000   0.00000   1.000
    C7      C    0.00000   0.11989   0.00000   1.000
    C8      C    0.00000   0.88011   0.00000   1.000
    C9      C    0.00000   0.00000   0.11989   1.000
    C10     C    0.00000   0.00000   0.88011   1.000
    C11     C    0.11989   0.50000   0.50000   1.000
    C12     C    0.88011   0.50000   0.50000   1.000
    C13     C    0.00000   0.61989   0.50000   1.000
    C14     C    0.00000   0.38011   0.50000   1.000
    C15     C    0.00000   0.50000   0.61989   1.000
    C16     C    0.00000   0.50000   0.38011   1.000
    C17     C    0.61989   0.00000   0.50000   1.000
    C18     C    0.38011   0.00000   0.50000   1.000
    C19     C    0.50000   0.11989   0.50000   1.000
    C20     C    0.50000   0.88011   0.50000   1.000
    C21     C    0.50000   0.00000   0.61989   1.000
    C22     C    0.50000   0.00000   0.38011   1.000
    C23     C    0.61989   0.50000   0.00000   1.000
    C24     C    0.38011   0.50000   0.00000   1.000
    C25     C    0.50000   0.61989   0.00000   1.000
    C26     C    0.50000   0.38011   0.00000   1.000
    C27     C    0.50000   0.50000   0.11989   1.000
    C28     C    0.50000   0.50000   0.88011   1.000
    C29     C    0.82953   0.00000   0.09530   1.000
    C30     C    0.82953   0.00000   0.90470   1.000
    C31     C    0.17047   0.00000   0.90470   1.000
    C32     C    0.09530   0.17047   0.00000   1.000
    C33     C    0.09530   0.82953   0.00000   1.000
    C34     C    0.90470   0.82953   0.00000   1.000
    C35     C    0.90470   0.17047   0.00000   1.000
    C36     C    0.00000   0.09530   0.17047   1.000
    C37     C    0.00000   0.09530   0.82953   1.000
    C38     C    0.00000   0.90470   0.82953   1.000
    C39     C    0.00000   0.90470   0.17047   1.000
    C40     C    0.00000   0.17047   0.90470   1.000
    C41     C    0.00000   0.82953   0.90470   1.000
    C42     C    0.00000   0.82953   0.09530   1.000
    C43     C    0.00000   0.17047   0.09530   1.000
    C44     C    0.17047   0.09530   0.00000   1.000
    C45     C    0.82953   0.09530   0.00000   1.000
    C46     C    0.82953   0.90470   0.00000   1.000
    C47     C    0.17047   0.90470   0.00000   1.000
    C48     C    0.09530   0.00000   0.82953   1.000
    C49     C    0.09530   0.00000   0.17047   1.000
    C50     C    0.90470   0.00000   0.17047   1.000
    C51     C    0.90470   0.00000   0.82953   1.000
    C52     C    0.17047   0.50000   0.59530   1.000
    C53     C    0.82953   0.50000   0.59530   1.000
    C54     C    0.82953   0.50000   0.40470   1.000
    C55     C    0.17047   0.50000   0.40470   1.000
    C56     C    0.09530   0.67047   0.50000   1.000
    C57     C    0.09530   0.32953   0.50000   1.000
    C58     C    0.90470   0.32953   0.50000   1.000
    C59     C    0.90470   0.67047   0.50000   1.000
    C60     C    0.00000   0.59530   0.67047   1.000
    C61     C    0.00000   0.59530   0.32953   1.000
    C62     C    0.00000   0.40470   0.32953   1.000
    C63     C    0.00000   0.40470   0.67047   1.000
    C64     C    0.00000   0.67047   0.40470   1.000
    C65     C    0.00000   0.32953   0.40470   1.000
    C66     C    0.00000   0.32953   0.59530   1.000
    C67     C    0.00000   0.67047   0.59530   1.000
    C68     C    0.17047   0.59530   0.50000   1.000
    C69     C    0.82953   0.59530   0.50000   1.000
    C70     C    0.82953   0.40470   0.50000   1.000
    C71     C    0.17047   0.40470   0.50000   1.000
    C72     C    0.09530   0.50000   0.32953   1.000
    C73     C    0.09530   0.50000   0.67047   1.000
    C74     C    0.90470   0.50000   0.67047   1.000
    C75     C    0.90470   0.50000   0.32953   1.000
    C76     C    0.67047   0.00000   0.59530   1.000
    C77     C    0.32953   0.00000   0.59530   1.000
    C78     C    0.32953   0.00000   0.40470   1.000
    C79     C    0.67047   0.00000   0.40470   1.000
    C80     C    0.59530   0.17047   0.50000   1.000
    C81     C    0.59530   0.82953   0.50000   1.000
    C82     C    0.40470   0.82953   0.50000   1.000
    C83     C    0.40470   0.17047   0.50000   1.000
    C84     C    0.50000   0.09530   0.67047   1.000
    C85     C    0.50000   0.09530   0.32953   1.000
    C86     C    0.50000   0.90470   0.32953   1.000
    C87     C    0.50000   0.90470   0.67047   1.000
    C88     C    0.50000   0.17047   0.40470   1.000
    C89     C    0.50000   0.82953   0.40470   1.000
    C90     C    0.50000   0.82953   0.59530   1.000
    C91     C    0.50000   0.17047   0.59530   1.000
    C92     C    0.67047   0.09530   0.50000   1.000
    C93     C    0.32953   0.09530   0.50000   1.000
    C94     C    0.32953   0.90470   0.50000   1.000
    C95     C    0.67047   0.90470   0.50000   1.000
    C96     C    0.59530   0.00000   0.32953   1.000
    C97     C    0.59530   0.00000   0.67047   1.000
    C98     C    0.40470   0.00000   0.67047   1.000
    C99     C    0.40470   0.00000   0.32953   1.000
    C100    C    0.67047   0.50000   0.09530   1.000
    C101    C    0.32953   0.50000   0.09530   1.000
    C102    C    0.32953   0.50000   0.90470   1.000
    C103    C    0.67047   0.50000   0.90470   1.000
    C104    C    0.59530   0.67047   0.00000   1.000
    C105    C    0.59530   0.32953   0.00000   1.000
    C106    C    0.40470   0.32953   0.00000   1.000
    C107    C    0.40470   0.67047   0.00000   1.000
    C108    C    0.50000   0.59530   0.17047   1.000
    C109    C    0.50000   0.59530   0.82953   1.000
    C110    C    0.50000   0.40470   0.82953   1.000
    C111    C    0.50000   0.40470   0.17047   1.000
    C112    C    0.50000   0.67047   0.90470   1.000
    C113    C    0.50000   0.32953   0.90470   1.000
    C114    C    0.50000   0.32953   0.09530   1.000
    C115    C    0.50000   0.67047   0.09530   1.000
    C116    C    0.67047   0.59530   0.00000   1.000
    C117    C    0.32953   0.59530   0.00000   1.000
    C118    C    0.32953   0.40470   0.00000   1.000
    C119    C    0.67047   0.40470   0.00000   1.000
    C120    C    0.59530   0.50000   0.82953   1.000
    C121    C    0.59530   0.50000   0.17047   1.000
    C122    C    0.40470   0.50000   0.17047   1.000
    C123    C    0.40470   0.50000   0.82953   1.000
    C124    C    0.94390   0.05610   0.94390   1.000
    C125    C    0.94390   0.94390   0.05610   1.000
    C126    C    0.05610   0.05610   0.05610   1.000
    C127    C    0.94390   0.05610   0.05610   1.000
    C128    C    0.05610   0.94390   0.05610   1.000
    C129    C    0.94390   0.94390   0.94390   1.000
    C130    C    0.05610   0.05610   0.94390   1.000
    C131    C    0.05610   0.44390   0.44390   1.000
    C132    C    0.94390   0.55610   0.44390   1.000
    C133    C    0.94390   0.44390   0.55610   1.000
    C134    C    0.05610   0.55610   0.55610   1.000
    C135    C    0.94390   0.55610   0.55610   1.000
    C136    C    0.05610   0.44390   0.55610   1.000
    C137    C    0.94390   0.44390   0.44390   1.000
    C138    C    0.05610   0.55610   0.44390   1.000
    C139    C    0.55610   0.94390   0.44390   1.000
    C140    C    0.44390   0.05610   0.44390   1.000
    C141    C    0.44390   0.94390   0.55610   1.000
    C142    C    0.55610   0.05610   0.55610   1.000
    C143    C    0.44390   0.05610   0.55610   1.000
    C144    C    0.55610   0.94390   0.55610   1.000
    C145    C    0.44390   0.94390   0.44390   1.000
    C146    C    0.55610   0.05610   0.44390   1.000
    C147    C    0.55610   0.44390   0.94390   1.000
    C148    C    0.44390   0.55610   0.94390   1.000
    C149    C    0.44390   0.44390   0.05610   1.000
    C150    C    0.55610   0.55610   0.05610   1.000
    C151    C    0.44390   0.55610   0.05610   1.000
    C152    C    0.55610   0.44390   0.05610   1.000
    C153    C    0.44390   0.44390   0.94390   1.000
    C154    C    0.55610   0.55610   0.94390   1.000
    C155    C    0.84640   0.00000   0.84640   1.000
    C156    C    0.84640   0.00000   0.15360   1.000
    C157    C    0.15360   0.00000   0.15360   1.000
    C158    C    0.84640   0.15360   0.00000   1.000
    C159    C    0.84640   0.84640   0.00000   1.000
    C160    C    0.15360   0.84640   0.00000   1.000
    C161    C    0.15360   0.15360   0.00000   1.000
    C162    C    0.00000   0.84640   0.15360   1.000
    C163    C    0.00000   0.84640   0.84640   1.000
    C164    C    0.00000   0.15360   0.84640   1.000
    C165    C    0.00000   0.15360   0.15360   1.000
    C166    C    0.15360   0.50000   0.34640   1.000
    C167    C    0.84640   0.50000   0.34640   1.000
    C168    C    0.84640   0.50000   0.65360   1.000
    C169    C    0.15360   0.50000   0.65360   1.000
    C170    C    0.84640   0.65360   0.50000   1.000
    C171    C    0.84640   0.34640   0.50000   1.000
    C172    C    0.15360   0.34640   0.50000   1.000
    C173    C    0.15360   0.65360   0.50000   1.000
    C174    C    0.00000   0.34640   0.65360   1.000
    C175    C    0.00000   0.34640   0.34640   1.000
    C176    C    0.00000   0.65360   0.34640   1.000
    C177    C    0.00000   0.65360   0.65360   1.000
    C178    C    0.65360   0.00000   0.34640   1.000
    C179    C    0.34640   0.00000   0.34640   1.000
    C180    C    0.34640   0.00000   0.65360   1.000
    C181    C    0.65360   0.00000   0.65360   1.000
    C182    C    0.34640   0.15360   0.50000   1.000
    C183    C    0.34640   0.84640   0.50000   1.000
    C184    C    0.65360   0.84640   0.50000   1.000
    C185    C    0.65360   0.15360   0.50000   1.000
    C186    C    0.50000   0.84640   0.65360   1.000
    C187    C    0.50000   0.84640   0.34640   1.000
    C188    C    0.50000   0.15360   0.34640   1.000
    C189    C    0.50000   0.15360   0.65360   1.000
    C190    C    0.65360   0.50000   0.84640   1.000
    C191    C    0.34640   0.50000   0.84640   1.000
    C192    C    0.34640   0.50000   0.15360   1.000
    C193    C    0.65360   0.50000   0.15360   1.000
    C194    C    0.34640   0.65360   0.00000   1.000
    C195    C    0.34640   0.34640   0.00000   1.000
    C196    C    0.65360   0.34640   0.00000   1.000
    C197    C    0.65360   0.65360   0.00000   1.000
    C198    C    0.50000   0.34640   0.15360   1.000
    C199    C    0.50000   0.34640   0.84640   1.000
    C200    C    0.50000   0.65360   0.84640   1.000
    C201    C    0.50000   0.65360   0.15360   1.000
    C202    C    0.79500   0.00000   0.20500   1.000
    C203    C    0.79500   0.00000   0.79500   1.000
    C204    C    0.20500   0.00000   0.79500   1.000
    C205    C    0.20500   0.20500   0.00000   1.000
    C206    C    0.20500   0.79500   0.00000   1.000
    C207    C    0.79500   0.79500   0.00000   1.000
    C208    C    0.79500   0.20500   0.00000   1.000
    C209    C    0.00000   0.20500   0.20500   1.000
    C210    C    0.00000   0.20500   0.79500   1.000
    C211    C    0.00000   0.79500   0.79500   1.000
    C212    C    0.00000   0.79500   0.20500   1.000
    C213    C    0.20500   0.50000   0.70500   1.000
    C214    C    0.79500   0.50000   0.70500   1.000
    C215    C    0.79500   0.50000   0.29500   1.000
    C216    C    0.20500   0.50000   0.29500   1.000
    C217    C    0.20500   0.70500   0.50000   1.000
    C218    C    0.20500   0.29500   0.50000   1.000
    C219    C    0.79500   0.29500   0.50000   1.000
    C220    C    0.79500   0.70500   0.50000   1.000
    C221    C    0.00000   0.70500   0.70500   1.000
    C222    C    0.00000   0.70500   0.29500   1.000
    C223    C    0.00000   0.29500   0.29500   1.000
    C224    C    0.00000   0.29500   0.70500   1.000
    C225    C    0.70500   0.00000   0.70500   1.000
    C226    C    0.29500   0.00000   0.70500   1.000
    C227    C    0.29500   0.00000   0.29500   1.000
    C228    C    0.70500   0.00000   0.29500   1.000
    C229    C    0.70500   0.20500   0.50000   1.000
    C230    C    0.70500   0.79500   0.50000   1.000
    C231    C    0.29500   0.79500   0.50000   1.000
    C232    C    0.29500   0.20500   0.50000   1.000
    C233    C    0.50000   0.20500   0.70500   1.000
    C234    C    0.50000   0.20500   0.29500   1.000
    C235    C    0.50000   0.79500   0.29500   1.000
    C236    C    0.50000   0.79500   0.70500   1.000
    C237    C    0.70500   0.50000   0.20500   1.000
    C238    C    0.29500   0.50000   0.20500   1.000
    C239    C    0.29500   0.50000   0.79500   1.000
    C240    C    0.70500   0.50000   0.79500   1.000
    C241    C    0.70500   0.70500   0.00000   1.000
    C242    C    0.70500   0.29500   0.00000   1.000
    C243    C    0.29500   0.29500   0.00000   1.000
    C244    C    0.29500   0.70500   0.00000   1.000
    C245    C    0.50000   0.70500   0.20500   1.000
    C246    C    0.50000   0.70500   0.79500   1.000
    C247    C    0.50000   0.29500   0.79500   1.000
    C248    C    0.50000   0.29500   0.20500   1.000
    C249    C    0.73250   0.00000   0.18440   1.000
    C250    C    0.73250   0.00000   0.81560   1.000
    C251    C    0.26750   0.00000   0.81560   1.000
    C252    C    0.18440   0.26750   0.00000   1.000
    C253    C    0.18440   0.73250   0.00000   1.000
    C254    C    0.81560   0.73250   0.00000   1.000
    C255    C    0.81560   0.26750   0.00000   1.000
    C256    C    0.00000   0.18440   0.26750   1.000
    C257    C    0.00000   0.18440   0.73250   1.000
    C258    C    0.00000   0.81560   0.73250   1.000
    C259    C    0.00000   0.81560   0.26750   1.000
    C260    C    0.00000   0.26750   0.81560   1.000
    C261    C    0.00000   0.73250   0.81560   1.000
    C262    C    0.00000   0.73250   0.18440   1.000
    C263    C    0.00000   0.26750   0.18440   1.000
    C264    C    0.26750   0.18440   0.00000   1.000
    C265    C    0.73250   0.18440   0.00000   1.000
    C266    C    0.73250   0.81560   0.00000   1.000
    C267    C    0.26750   0.81560   0.00000   1.000
    C268    C    0.18440   0.00000   0.73250   1.000
    C269    C    0.18440   0.00000   0.26750   1.000
    C270    C    0.81560   0.00000   0.26750   1.000
    C271    C    0.81560   0.00000   0.73250   1.000
    C272    C    0.26750   0.50000   0.68440   1.000
    C273    C    0.73250   0.50000   0.68440   1.000
    C274    C    0.73250   0.50000   0.31560   1.000
    C275    C    0.26750   0.50000   0.31560   1.000
    C276    C    0.18440   0.76750   0.50000   1.000
    C277    C    0.18440   0.23250   0.50000   1.000
    C278    C    0.81560   0.23250   0.50000   1.000
    C279    C    0.81560   0.76750   0.50000   1.000
    C280    C    0.00000   0.68440   0.76750   1.000
    C281    C    0.00000   0.68440   0.23250   1.000
    C282    C    0.00000   0.31560   0.23250   1.000
    C283    C    0.00000   0.31560   0.76750   1.000
    C284    C    0.00000   0.76750   0.31560   1.000
    C285    C    0.00000   0.23250   0.31560   1.000
    C286    C    0.00000   0.23250   0.68440   1.000
    C287    C    0.00000   0.76750   0.68440   1.000
    C288    C    0.26750   0.68440   0.50000   1.000
    C289    C    0.73250   0.68440   0.50000   1.000
    C290    C    0.73250   0.31560   0.50000   1.000
    C291    C    0.26750   0.31560   0.50000   1.000
    C292    C    0.18440   0.50000   0.23250   1.000
    C293    C    0.18440   0.50000   0.76750   1.000
    C294    C    0.81560   0.50000   0.76750   1.000
    C295    C    0.81560   0.50000   0.23250   1.000
    C296    C    0.76750   0.00000   0.68440   1.000
    C297    C    0.23250   0.00000   0.68440   1.000
    C298    C    0.23250   0.00000   0.31560   1.000
    C299    C    0.76750   0.00000   0.31560   1.000
    C300    C    0.68440   0.26750   0.50000   1.000
    C301    C    0.68440   0.73250   0.50000   1.000
    C302    C    0.31560   0.73250   0.50000   1.000
    C303    C    0.31560   0.26750   0.50000   1.000
    C304    C    0.50000   0.18440   0.76750   1.000
    C305    C    0.50000   0.18440   0.23250   1.000
    C306    C    0.50000   0.81560   0.23250   1.000
    C307    C    0.50000   0.81560   0.76750   1.000
    C308    C    0.50000   0.26750   0.31560   1.000
    C309    C    0.50000   0.73250   0.31560   1.000
    C310    C    0.50000   0.73250   0.68440   1.000
    C311    C    0.50000   0.26750   0.68440   1.000
    C312    C    0.76750   0.18440   0.50000   1.000
    C313    C    0.23250   0.18440   0.50000   1.000
    C314    C    0.23250   0.81560   0.50000   1.000
    C315    C    0.76750   0.81560   0.50000   1.000
    C316    C    0.68440   0.00000   0.23250   1.000
    C317    C    0.68440   0.00000   0.76750   1.000
    C318    C    0.31560   0.00000   0.76750   1.000
    C319    C    0.31560   0.00000   0.23250   1.000
    C320    C    0.76750   0.50000   0.18440   1.000
    C321    C    0.23250   0.50000   0.18440   1.000
    C322    C    0.23250   0.50000   0.81560   1.000
    C323    C    0.76750   0.50000   0.81560   1.000
    C324    C    0.68440   0.76750   0.00000   1.000
    C325    C    0.68440   0.23250   0.00000   1.000
    C326    C    0.31560   0.23250   0.00000   1.000
    C327    C    0.31560   0.76750   0.00000   1.000
    C328    C    0.50000   0.68440   0.26750   1.000
    C329    C    0.50000   0.68440   0.73250   1.000
    C330    C    0.50000   0.31560   0.73250   1.000
    C331    C    0.50000   0.31560   0.26750   1.000
    C332    C    0.50000   0.76750   0.81560   1.000
    C333    C    0.50000   0.23250   0.81560   1.000
    C334    C    0.50000   0.23250   0.18440   1.000
    C335    C    0.50000   0.76750   0.18440   1.000
    C336    C    0.76750   0.68440   0.00000   1.000
    C337    C    0.23250   0.68440   0.00000   1.000
    C338    C    0.23250   0.31560   0.00000   1.000
    C339    C    0.76750   0.31560   0.00000   1.000
    C340    C    0.68440   0.50000   0.73250   1.000
    C341    C    0.68440   0.50000   0.26750   1.000
    C342    C    0.31560   0.50000   0.26750   1.000
    C343    C    0.31560   0.50000   0.73250   1.000
    O344    O    0.17930   0.00000   0.82070   1.000
    O345    O    0.12445   0.00000   0.83796   1.000
    O346    O    0.16203   0.00000   0.87555   1.000
    O347    O    0.08800   0.97195   0.97195   1.000
    O348    O    0.02805   0.97195   0.91200   1.000
    O349    O    0.62445   0.33797   0.00000   1.000
    O350    O    0.54765   0.35482   0.00000   1.000
    O351    O    0.16203   0.87555   0.00000   1.000
    O352    O    0.14518   0.95235   0.00000   1.000
    O353    O    0.83796   0.87555   0.00000   1.000
    O354    O    0.85482   0.95235   0.00000   1.000
    O355    O    0.83796   0.12445   0.00000   1.000
    O356    O    0.16203   0.12445   0.00000   1.000
    O357    O    0.37555   0.66204   0.00000   1.000
    O358    O    0.12445   0.83796   0.00000   1.000
    O359    O    0.17930   0.82070   0.00000   1.000
    O360    O    0.12445   0.16203   0.00000   1.000
    O361    O    0.17930   0.17930   0.00000   1.000
    O362    O    0.37555   0.33797   0.00000   1.000
    O363    O    0.82070   0.17930   0.00000   1.000
    O364    O    0.87555   0.16203   0.00000   1.000
    O365    O    0.08800   0.97195   0.02805   1.000
    O366    O    0.14518   0.00000   0.95235   1.000
    O367    O    0.08800   0.02805   0.97195   1.000
    O368    O    0.80530   0.23625   0.00000   1.000
    O369    O    0.76375   0.19470   0.00000   1.000
    O370    O    0.87555   0.83796   0.00000   1.000
    O371    O    0.95235   0.85482   0.00000   1.000
    O372    O    0.82070   0.82070   0.00000   1.000
    O373    O    0.95235   0.14518   0.00000   1.000
    O374    O    0.66204   0.62445   0.00000   1.000
    O375    O    0.64518   0.54765   0.00000   1.000
    O376    O    0.67930   0.67930   0.00000   1.000
    O377    O    0.69470   0.73625   0.00000   1.000
    O378    O    0.73625   0.69470   0.00000   1.000
    O379    O    0.67930   0.32070   0.00000   1.000
    O380    O    0.73625   0.30530   0.00000   1.000
    O381    O    0.69470   0.26375   0.00000   1.000
    O382    O    0.32070   0.32070   0.00000   1.000
    O383    O    0.26375   0.30530   0.00000   1.000
    O384    O    0.30530   0.26375   0.00000   1.000
    O385    O    0.26375   0.69470   0.00000   1.000
    O386    O    0.32070   0.67930   0.00000   1.000
    O387    O    0.30530   0.73625   0.00000   1.000
    O388    O    0.20845   0.29155   0.00000   1.000
    O389    O    0.19470   0.23625   0.00000   1.000
    O390    O    0.20845   0.70845   0.00000   1.000
    O391    O    0.19470   0.76375   0.00000   1.000
    O392    O    0.79155   0.70845   0.00000   1.000
    O393    O    0.80530   0.76375   0.00000   1.000
    O394    O    0.79155   0.29155   0.00000   1.000
    O395    O    0.66204   0.37555   0.00000   1.000
    O396    O    0.33797   0.37555   0.00000   1.000
    O397    O    0.33797   0.62445   0.00000   1.000
    O398    O    0.35482   0.54765   0.00000   1.000
    O399    O    0.29155   0.79155   0.00000   1.000
    O400    O    0.23625   0.80530   0.00000   1.000
    O401    O    0.62445   0.66204   0.00000   1.000
    O402    O    0.91200   0.97195   0.02805   1.000
    O403    O    0.85482   0.00000   0.95235   1.000
    O404    O    0.91200   0.02805   0.97195   1.000
    O405    O    0.91200   0.97195   0.97195   1.000
    O406    O    0.97195   0.08799   0.02805   1.000
    O407    O    0.02805   0.08800   0.02805   1.000
    O408    O    0.00000   0.14518   0.95235   1.000
    O409    O    0.00000   0.85482   0.04765   1.000
    O410    O    0.00000   0.85482   0.95235   1.000
    O411    O    0.97195   0.91200   0.97195   1.000
    O412    O    0.70845   0.79155   0.00000   1.000
    O413    O    0.76375   0.80530   0.00000   1.000
    O414    O    0.70845   0.20845   0.00000   1.000
    O415    O    0.64518   0.50000   0.95235   1.000
    O416    O    0.58799   0.52805   0.97195   1.000
    O417    O    0.58799   0.47195   0.97195   1.000
    O418    O    0.54765   0.64518   0.00000   1.000
    O419    O    0.29155   0.20845   0.00000   1.000
    O420    O    0.23625   0.19470   0.00000   1.000
    O421    O    0.52805   0.41201   0.02805   1.000
    O422    O    0.50000   0.35482   0.95235   1.000
    O423    O    0.47195   0.41201   0.97195   1.000
    O424    O    0.52805   0.41201   0.97195   1.000
    O425    O    0.52805   0.58799   0.02805   1.000
    O426    O    0.50000   0.64518   0.95235   1.000
    O427    O    0.52805   0.58799   0.97195   1.000
    O428    O    0.47195   0.58799   0.97195   1.000
    O429    O    0.41200   0.47195   0.02805   1.000
    O430    O    0.41200   0.52805   0.02805   1.000
    O431    O    0.35482   0.50000   0.95235   1.000
    O432    O    0.41200   0.47195   0.97195   1.000
    O433    O    0.41200   0.52805   0.97195   1.000
    O434    O    0.47195   0.47195   0.08800   1.000
    O435    O    0.52805   0.52805   0.08800   1.000
    O436    O    0.47195   0.52805   0.08800   1.000
    O437    O    0.52805   0.47195   0.08800   1.000
    O438    O    0.02805   0.97195   0.08800   1.000
    O439    O    0.97195   0.02805   0.08800   1.000
    O440    O    0.02805   0.02805   0.08800   1.000
    O441    O    0.97195   0.97195   0.08800   1.000
    O442    O    0.50000   0.33797   0.12445   1.000
    O443    O    0.50000   0.66204   0.12445   1.000
    O444    O    0.00000   0.83796   0.12445   1.000
    O445    O    0.66204   0.50000   0.12445   1.000
    O446    O    0.33797   0.50000   0.12445   1.000
    O447    O    0.00000   0.16203   0.12445   1.000
    O448    O    0.83796   0.00000   0.12445   1.000
    O449    O    0.16203   0.00000   0.12445   1.000
    O450    O    0.54765   0.50000   0.14518   1.000
    O451    O    0.50000   0.54765   0.14518   1.000
    O452    O    0.95235   0.00000   0.14518   1.000
    O453    O    0.00000   0.95235   0.14518   1.000
    O454    O    0.87555   0.00000   0.16203   1.000
    O455    O    0.82070   0.00000   0.17930   1.000
    O456    O    0.12445   0.00000   0.16203   1.000
    O457    O    0.17930   0.00000   0.17930   1.000
    O458    O    0.37555   0.50000   0.16203   1.000
    O459    O    0.32070   0.50000   0.17930   1.000
    O460    O    0.62445   0.50000   0.16203   1.000
    O461    O    0.67930   0.50000   0.17930   1.000
    O462    O    0.50000   0.37555   0.16203   1.000
    O463    O    0.50000   0.32070   0.17930   1.000
    O464    O    0.00000   0.87555   0.16203   1.000
    O465    O    0.00000   0.82070   0.17930   1.000
    O466    O    0.00000   0.12445   0.16203   1.000
    O467    O    0.00000   0.17930   0.17930   1.000
    O468    O    0.50000   0.62445   0.16203   1.000
    O469    O    0.50000   0.67930   0.17930   1.000
    O470    O    0.50000   0.26375   0.19470   1.000
    O471    O    0.50000   0.20845   0.20845   1.000
    O472    O    0.00000   0.76375   0.19470   1.000
    O473    O    0.00000   0.70845   0.20845   1.000
    O474    O    0.00000   0.23625   0.19470   1.000
    O475    O    0.00000   0.29155   0.20845   1.000
    O476    O    0.50000   0.73625   0.19470   1.000
    O477    O    0.50000   0.79155   0.20845   1.000
    O478    O    0.26375   0.50000   0.19470   1.000
    O479    O    0.20845   0.50000   0.20845   1.000
    O480    O    0.76375   0.00000   0.19470   1.000
    O481    O    0.70845   0.00000   0.20845   1.000
    O482    O    0.73625   0.50000   0.19470   1.000
    O483    O    0.79155   0.50000   0.20845   1.000
    O484    O    0.23625   0.00000   0.19470   1.000
    O485    O    0.29155   0.00000   0.20845   1.000
    O486    O    0.00000   0.80530   0.23625   1.000
    O487    O    0.00000   0.19470   0.23625   1.000
    O488    O    0.19470   0.00000   0.23625   1.000
    O489    O    0.50000   0.30530   0.23625   1.000
    O490    O    0.50000   0.69470   0.23625   1.000
    O491    O    0.80530   0.00000   0.23625   1.000
    O492    O    0.69470   0.50000   0.23625   1.000
    O493    O    0.30530   0.50000   0.23625   1.000
    O494    O    0.69470   0.00000   0.26375   1.000
    O495    O    0.00000   0.30530   0.26375   1.000
    O496    O    0.30530   0.00000   0.26375   1.000
    O497    O    0.00000   0.69470   0.26375   1.000
    O498    O    0.50000   0.19470   0.26375   1.000
    O499    O    0.50000   0.80530   0.26375   1.000
    O500    O    0.80530   0.50000   0.26375   1.000
    O501    O    0.19470   0.50000   0.26375   1.000
    O502    O    0.00000   0.79155   0.29155   1.000
    O503    O    0.79155   0.00000   0.29155   1.000
    O504    O    0.20845   0.00000   0.29155   1.000
    O505    O    0.00000   0.20845   0.29155   1.000
    O506    O    0.29155   0.50000   0.29155   1.000
    O507    O    0.50000   0.29155   0.29155   1.000
    O508    O    0.50000   0.70845   0.29155   1.000
    O509    O    0.70845   0.50000   0.29155   1.000
    O510    O    0.76375   0.50000   0.30530   1.000
    O511    O    0.82070   0.50000   0.32070   1.000
    O512    O    0.50000   0.76375   0.30530   1.000
    O513    O    0.50000   0.82070   0.32070   1.000
    O514    O    0.50000   0.23625   0.30530   1.000
    O515    O    0.50000   0.17930   0.32070   1.000
    O516    O    0.23625   0.50000   0.30530   1.000
    O517    O    0.17930   0.50000   0.32070   1.000
    O518    O    0.73625   0.00000   0.30530   1.000
    O519    O    0.67930   0.00000   0.32070   1.000
    O520    O    0.00000   0.73625   0.30530   1.000
    O521    O    0.00000   0.67930   0.32070   1.000
    O522    O    0.26375   0.00000   0.30530   1.000
    O523    O    0.32070   0.00000   0.32070   1.000
    O524    O    0.00000   0.26375   0.30530   1.000
    O525    O    0.00000   0.32070   0.32070   1.000
    O526    O    0.50000   0.12445   0.33797   1.000
    O527    O    0.87555   0.50000   0.33797   1.000
    O528    O    0.95235   0.50000   0.35482   1.000
    O529    O    0.62445   0.00000   0.33797   1.000
    O530    O    0.54765   0.00000   0.35482   1.000
    O531    O    0.00000   0.37555   0.33797   1.000
    O532    O    0.00000   0.62445   0.33797   1.000
    O533    O    0.00000   0.54765   0.35482   1.000
    O534    O    0.12445   0.50000   0.33797   1.000
    O535    O    0.50000   0.87555   0.33797   1.000
    O536    O    0.50000   0.95235   0.35482   1.000
    O537    O    0.37555   0.00000   0.33797   1.000
    O538    O    0.16203   0.50000   0.37555   1.000
    O539    O    0.50000   0.16203   0.37555   1.000
    O540    O    0.00000   0.33797   0.37555   1.000
    O541    O    0.00000   0.66204   0.37555   1.000
    O542    O    0.83796   0.50000   0.37555   1.000
    O543    O    0.66204   0.00000   0.37555   1.000
    O544    O    0.50000   0.83796   0.37555   1.000
    O545    O    0.33797   0.00000   0.37555   1.000
    O546    O    0.52805   0.97195   0.41201   1.000
    O547    O    0.52805   0.02805   0.41201   1.000
    O548    O    0.47195   0.97195   0.41201   1.000
    O549    O    0.97195   0.52805   0.41201   1.000
    O550    O    0.97195   0.47195   0.41201   1.000
    O551    O    0.58800   0.97195   0.47195   1.000
    O552    O    0.47195   0.08800   0.47195   1.000
    O553    O    0.41200   0.02805   0.47195   1.000
    O554    O    0.08799   0.47195   0.47195   1.000
    O555    O    0.02805   0.41200   0.47195   1.000
    O556    O    0.97195   0.58799   0.47195   1.000
    O557    O    0.58799   0.02805   0.47195   1.000
    O558    O    0.41200   0.97195   0.47195   1.000
    O559    O    0.97195   0.41200   0.47195   1.000
    O560    O    0.08800   0.52805   0.47195   1.000
    O561    O    0.02805   0.58799   0.47195   1.000
    O562    O    0.20845   0.79155   0.50000   1.000
    O563    O    0.19470   0.73625   0.50000   1.000
    O564    O    0.20845   0.20845   0.50000   1.000
    O565    O    0.19470   0.26375   0.50000   1.000
    O566    O    0.79155   0.20845   0.50000   1.000
    O567    O    0.80530   0.26375   0.50000   1.000
    O568    O    0.79155   0.79155   0.50000   1.000
    O569    O    0.80530   0.73625   0.50000   1.000
    O570    O    0.29155   0.70845   0.50000   1.000
    O571    O    0.23625   0.69470   0.50000   1.000
    O572    O    0.70845   0.70845   0.50000   1.000
    O573    O    0.76375   0.69470   0.50000   1.000
    O574    O    0.17930   0.32070   0.50000   1.000
    O575    O    0.12445   0.33797   0.50000   1.000
    O576    O    0.16203   0.37555   0.50000   1.000
    O577    O    0.30530   0.76375   0.50000   1.000
    O578    O    0.73625   0.19470   0.50000   1.000
    O579    O    0.26375   0.19470   0.50000   1.000
    O580    O    0.30530   0.23625   0.50000   1.000
    O581    O    0.32070   0.17930   0.50000   1.000
    O582    O    0.26375   0.80530   0.50000   1.000
    O583    O    0.32070   0.82070   0.50000   1.000
    O584    O    0.73625   0.80530   0.50000   1.000
    O585    O    0.69470   0.76375   0.50000   1.000
    O586    O    0.67930   0.82070   0.50000   1.000
    O587    O    0.29155   0.29155   0.50000   1.000
    O588    O    0.17930   0.67930   0.50000   1.000
    O589    O    0.69470   0.23625   0.50000   1.000
    O590    O    0.67930   0.17930   0.50000   1.000
    O591    O    0.70845   0.29155   0.50000   1.000
    O592    O    0.23625   0.30530   0.50000   1.000
    O593    O    0.82070   0.67930   0.50000   1.000
    O594    O    0.76375   0.30530   0.50000   1.000
    O595    O    0.82070   0.32070   0.50000   1.000
    O596    O    0.54765   0.85482   0.50000   1.000
    O597    O    0.62445   0.83796   0.50000   1.000
    O598    O    0.50000   0.85482   0.54765   1.000
    O599    O    0.54765   0.14518   0.50000   1.000
    O600    O    0.52805   0.08800   0.52805   1.000
    O601    O    0.50000   0.14518   0.54765   1.000
    O602    O    0.35482   0.95235   0.50000   1.000
    O603    O    0.41200   0.97195   0.52805   1.000
    O604    O    0.41200   0.02805   0.52805   1.000
    O605    O    0.35482   0.00000   0.54765   1.000
    O606    O    0.64518   0.95235   0.50000   1.000
    O607    O    0.58799   0.97195   0.52805   1.000
    O608    O    0.64518   0.00000   0.54765   1.000
    O609    O    0.12445   0.66204   0.50000   1.000
    O610    O    0.87555   0.33797   0.50000   1.000
    O611    O    0.95235   0.35482   0.50000   1.000
    O612    O    0.87555   0.66204   0.50000   1.000
    O613    O    0.95235   0.64518   0.50000   1.000
    O614    O    0.83796   0.62445   0.50000   1.000
    O615    O    0.16204   0.62445   0.50000   1.000
    O616    O    0.14518   0.54765   0.50000   1.000
    O617    O    0.83796   0.37555   0.50000   1.000
    O618    O    0.85482   0.54765   0.50000   1.000
    O619    O    0.33797   0.87555   0.50000   1.000
    O620    O    0.08800   0.47195   0.52805   1.000
    O621    O    0.14518   0.50000   0.54765   1.000
    O622    O    0.62445   0.16203   0.50000   1.000
    O623    O    0.85482   0.50000   0.54765   1.000
    O624    O    0.02805   0.58799   0.52805   1.000
    O625    O    0.97195   0.58799   0.52805   1.000
    O626    O    0.00000   0.64518   0.54765   1.000
    O627    O    0.37555   0.83796   0.50000   1.000
    O628    O    0.37555   0.16203   0.50000   1.000
    O629    O    0.66204   0.12445   0.50000   1.000
    O630    O    0.66204   0.87555   0.50000   1.000
    O631    O    0.97195   0.41200   0.52805   1.000
    O632    O    0.02805   0.41200   0.52805   1.000
    O633    O    0.00000   0.35482   0.54765   1.000
    O634    O    0.33797   0.12445   0.50000   1.000
    O635    O    0.97195   0.47195   0.58799   1.000
    O636    O    0.02805   0.52805   0.58799   1.000
    O637    O    0.97195   0.52805   0.58799   1.000
    O638    O    0.47195   0.97195   0.58799   1.000
    O639    O    0.52805   0.02805   0.58799   1.000
    O640    O    0.47195   0.02805   0.58799   1.000
    O641    O    0.52805   0.97195   0.58799   1.000
    O642    O    0.00000   0.33797   0.62445   1.000
    O643    O    0.33797   0.00000   0.62445   1.000
    O644    O    0.66204   0.00000   0.62445   1.000
    O645    O    0.00000   0.66204   0.62445   1.000
    O646    O    0.50000   0.16203   0.62445   1.000
    O647    O    0.50000   0.83796   0.62445   1.000
    O648    O    0.83796   0.50000   0.62445   1.000
    O649    O    0.16204   0.50000   0.62445   1.000
    O650    O    0.54765   0.00000   0.64518   1.000
    O651    O    0.50000   0.95235   0.64518   1.000
    O652    O    0.95235   0.50000   0.64518   1.000
    O653    O    0.00000   0.54765   0.64518   1.000
    O654    O    0.87555   0.50000   0.66204   1.000
    O655    O    0.82070   0.50000   0.67930   1.000
    O656    O    0.50000   0.87555   0.66204   1.000
    O657    O    0.50000   0.82070   0.67930   1.000
    O658    O    0.50000   0.12445   0.66204   1.000
    O659    O    0.50000   0.17930   0.67930   1.000
    O660    O    0.12445   0.50000   0.66204   1.000
    O661    O    0.17930   0.50000   0.67930   1.000
    O662    O    0.37555   0.00000   0.66204   1.000
    O663    O    0.32070   0.00000   0.67930   1.000
    O664    O    0.00000   0.62445   0.66204   1.000
    O665    O    0.00000   0.67930   0.67930   1.000
    O666    O    0.00000   0.37555   0.66204   1.000
    O667    O    0.00000   0.32070   0.67930   1.000
    O668    O    0.62445   0.00000   0.66204   1.000
    O669    O    0.67930   0.00000   0.67930   1.000
    O670    O    0.00000   0.73625   0.69470   1.000
    O671    O    0.00000   0.79155   0.70845   1.000
    O672    O    0.23625   0.50000   0.69470   1.000
    O673    O    0.29155   0.50000   0.70845   1.000
    O674    O    0.00000   0.26375   0.69470   1.000
    O675    O    0.00000   0.20845   0.70845   1.000
    O676    O    0.76375   0.50000   0.69470   1.000
    O677    O    0.70845   0.50000   0.70845   1.000
    O678    O    0.73625   0.00000   0.69470   1.000
    O679    O    0.79155   0.00000   0.70845   1.000
    O680    O    0.26375   0.00000   0.69470   1.000
    O681    O    0.20845   0.00000   0.70845   1.000
    O682    O    0.50000   0.76375   0.69470   1.000
    O683    O    0.50000   0.70845   0.70845   1.000
    O684    O    0.50000   0.23625   0.69470   1.000
    O685    O    0.50000   0.29155   0.70845   1.000
    O686    O    0.19470   0.50000   0.73625   1.000
    O687    O    0.50000   0.80530   0.73625   1.000
    O688    O    0.80530   0.50000   0.73625   1.000
    O689    O    0.00000   0.69470   0.73625   1.000
    O690    O    0.00000   0.30530   0.73625   1.000
    O691    O    0.69470   0.00000   0.73625   1.000
    O692    O    0.30530   0.00000   0.73625   1.000
    O693    O    0.50000   0.19470   0.73625   1.000
    O694    O    0.50000   0.30530   0.76375   1.000
    O695    O    0.50000   0.69470   0.76375   1.000
    O696    O    0.80530   0.00000   0.76375   1.000
    O697    O    0.69470   0.50000   0.76375   1.000
    O698    O    0.30530   0.50000   0.76375   1.000
    O699    O    0.19470   0.00000   0.76375   1.000
    O700    O    0.00000   0.19470   0.76375   1.000
    O701    O    0.00000   0.80530   0.76375   1.000
    O702    O    0.00000   0.70845   0.79155   1.000
    O703    O    0.00000   0.29155   0.79155   1.000
    O704    O    0.70845   0.00000   0.79155   1.000
    O705    O    0.50000   0.79155   0.79155   1.000
    O706    O    0.29155   0.00000   0.79155   1.000
    O707    O    0.50000   0.20845   0.79155   1.000
    O708    O    0.79155   0.50000   0.79155   1.000
    O709    O    0.20845   0.50000   0.79155   1.000
    O710    O    0.26375   0.50000   0.80530   1.000
    O711    O    0.32070   0.50000   0.82070   1.000
    O712    O    0.73625   0.50000   0.80530   1.000
    O713    O    0.67930   0.50000   0.82070   1.000
    O714    O    0.50000   0.73625   0.80530   1.000
    O715    O    0.50000   0.67930   0.82070   1.000
    O716    O    0.50000   0.26375   0.80530   1.000
    O717    O    0.50000   0.32070   0.82070   1.000
    O718    O    0.76375   0.00000   0.80530   1.000
    O719    O    0.82070   0.00000   0.82070   1.000
    O720    O    0.23625   0.00000   0.80530   1.000
    O721    O    0.00000   0.76375   0.80530   1.000
    O722    O    0.00000   0.82070   0.82070   1.000
    O723    O    0.00000   0.23625   0.80530   1.000
    O724    O    0.00000   0.17930   0.82070   1.000
    O725    O    0.00000   0.87555   0.83796   1.000
    O726    O    0.00000   0.95235   0.85482   1.000
    O727    O    0.00000   0.12445   0.83796   1.000
    O728    O    0.87555   0.00000   0.83796   1.000
    O729    O    0.95235   0.00000   0.85482   1.000
    O730    O    0.50000   0.37555   0.83796   1.000
    O731    O    0.50000   0.62445   0.83796   1.000
    O732    O    0.50000   0.54765   0.85482   1.000
    O733    O    0.37555   0.50000   0.83796   1.000
    O734    O    0.62445   0.50000   0.83796   1.000
    O735    O    0.54765   0.50000   0.85482   1.000
    O736    O    0.83796   0.00000   0.87555   1.000
    O737    O    0.00000   0.83796   0.87555   1.000
    O738    O    0.00000   0.16203   0.87555   1.000
    O739    O    0.50000   0.33797   0.87555   1.000
    O740    O    0.66204   0.50000   0.87555   1.000
    O741    O    0.33797   0.50000   0.87555   1.000
    O742    O    0.50000   0.66204   0.87555   1.000
    O743    O    0.97195   0.02805   0.91200   1.000
    O744    O    0.02805   0.02805   0.91200   1.000
    O745    O    0.14518   0.00000   0.04765   1.000
    O746    O    0.02805   0.91200   0.97195   1.000
    O747    O    0.85482   0.00000   0.04765   1.000
    O748    O    0.04765   0.14518   0.00000   1.000
    O749    O    0.04765   0.85482   0.00000   1.000
    O750    O    0.00000   0.04765   0.14518   1.000
    O751    O    0.00000   0.04765   0.85482   1.000
    O752    O    0.00000   0.14518   0.04765   1.000
    O753    O    0.14518   0.04765   0.00000   1.000
    O754    O    0.85482   0.04765   0.00000   1.000
    O755    O    0.04765   0.00000   0.85482   1.000
    O756    O    0.04765   0.00000   0.14518   1.000
    O757    O    0.85482   0.50000   0.45235   1.000
    O758    O    0.14518   0.50000   0.45235   1.000
    O759    O    0.04765   0.64518   0.50000   1.000
    O760    O    0.04765   0.35482   0.50000   1.000
    O761    O    0.00000   0.45235   0.35482   1.000
    O762    O    0.00000   0.45235   0.64518   1.000
    O763    O    0.00000   0.64518   0.45235   1.000
    O764    O    0.00000   0.35482   0.45235   1.000
    O765    O    0.85482   0.45235   0.50000   1.000
    O766    O    0.14518   0.45235   0.50000   1.000
    O767    O    0.04765   0.50000   0.35482   1.000
    O768    O    0.04765   0.50000   0.64518   1.000
    O769    O    0.35482   0.00000   0.45235   1.000
    O770    O    0.64518   0.00000   0.45235   1.000
    O771    O    0.45235   0.85482   0.50000   1.000
    O772    O    0.45235   0.14518   0.50000   1.000
    O773    O    0.50000   0.04765   0.64518   1.000
    O774    O    0.50000   0.04765   0.35482   1.000
    O775    O    0.50000   0.14518   0.45235   1.000
    O776    O    0.50000   0.85482   0.45235   1.000
    O777    O    0.64518   0.04765   0.50000   1.000
    O778    O    0.35482   0.04765   0.50000   1.000
    O779    O    0.45235   0.00000   0.64518   1.000
    O780    O    0.45235   0.00000   0.35482   1.000
    O781    O    0.64518   0.50000   0.04765   1.000
    O782    O    0.35482   0.50000   0.04765   1.000
    O783    O    0.45235   0.35482   0.00000   1.000
    O784    O    0.45235   0.64518   0.00000   1.000
    O785    O    0.50000   0.45235   0.85482   1.000
    O786    O    0.50000   0.45235   0.14518   1.000
    O787    O    0.50000   0.35482   0.04765   1.000
    O788    O    0.50000   0.64518   0.04765   1.000
    O789    O    0.35482   0.45235   0.00000   1.000
    O790    O    0.64518   0.45235   0.00000   1.000
    O791    O    0.45235   0.50000   0.14518   1.000
    O792    O    0.45235   0.50000   0.85482   1.000
    O793    O    0.97195   0.08800   0.97195   1.000
    O794    O    0.97195   0.91200   0.02805   1.000
    O795    O    0.08799   0.02805   0.02805   1.000
    O796    O    0.91200   0.02805   0.02805   1.000
    O797    O    0.02805   0.91200   0.02805   1.000
    O798    O    0.97195   0.97195   0.91200   1.000
    O799    O    0.02805   0.08799   0.97195   1.000
    O800    O    0.02805   0.47195   0.41201   1.000
    O801    O    0.91200   0.52805   0.47195   1.000
    O802    O    0.91200   0.47195   0.52805   1.000
    O803    O    0.08799   0.52805   0.52805   1.000
    O804    O    0.91200   0.52805   0.52805   1.000
    O805    O    0.02805   0.47195   0.58799   1.000
    O806    O    0.91200   0.47195   0.47195   1.000
    O807    O    0.02805   0.52805   0.41201   1.000
    O808    O    0.52805   0.91200   0.47195   1.000
    O809    O    0.47195   0.02805   0.41201   1.000
    O810    O    0.47195   0.91200   0.52805   1.000
    O811    O    0.58799   0.02805   0.52805   1.000
    O812    O    0.47195   0.08799   0.52805   1.000
    O813    O    0.52805   0.91200   0.52805   1.000
    O814    O    0.47195   0.91200   0.47195   1.000
    O815    O    0.52805   0.08799   0.47195   1.000
    O816    O    0.52805   0.47195   0.91200   1.000
    O817    O    0.47195   0.52805   0.91200   1.000
    O818    O    0.47195   0.41201   0.02805   1.000
    O819    O    0.58799   0.52805   0.02805   1.000
    O820    O    0.47195   0.58799   0.02805   1.000
    O821    O    0.58799   0.47195   0.02805   1.000
    O822    O    0.47195   0.47195   0.91200   1.000
    O823    O    0.52805   0.52805   0.91200   1.000
loop_
    _geom_bond_atom_site_label_1
    _geom_bond_atom_site_label_2
    _geom_bond_distance
    _geom_bond_site_symmetry_2
    _ccdc_geom_bond_type
    C3     O344      0.75236      .   S
    C204   O344      0.75236      .   S
    C3     O345      0.62817      .   S
    C48    O345      0.62817      .   S
    C3     O346      0.62817      .   S
    C31    O346      0.62817      .   S
    C2     O347      1.05367      .   S
    C0     O347      1.05367  1_544   S
    C2     O348      1.05367      .   S
    C10    O348      1.05367  1_545   S
    C105   O349      0.62817      .   S
    C196   O349      0.62817      .   S
    C105   O350      1.11669      .   S
    C26    O350      1.11669      .   S
    C47    O351      0.62817      .   S
    C160   O351      0.62817      .   S
    C47    O352      1.11669      .   S
    C0     O352      1.11669  1_545   S
    C46    O353      0.62817      .   S
    C159   O353      0.62817      .   S
    C46    O354      1.11669      .   S
    C6     O354      1.11669  1_545   S
    C45    O355      0.62817      .   S
    C158   O355      0.62817      .   S
    C44    O356      0.62817      .   S
    C161   O356      0.62817      .   S
    C107   O357      0.62817      .   S
    C194   O357      0.62817      .   S
    C160   O358      0.62817      .   S
    C33    O358      0.62817      .   S
    C160   O359      0.75236      .   S
    C206   O359      0.75236      .   S
    C161   O360      0.62817      .   S
    C32    O360      0.62817      .   S
    C161   O361      0.75236      .   S
    C205   O361      0.75236      .   S
    C106   O362      0.62817      .   S
    C195   O362      0.62817      .   S
    C158   O363      0.75236      .   S
    C208   O363      0.75236      .   S
    C158   O364      0.62817      .   S
    C35    O364      0.62817      .   S
    C0     O365      1.05367  1_545   S
    C128   O365      1.05367      .   S
    C0     O366      1.11669  1_554   S
    C31    O366      1.11669      .   S
    C0     O367      1.05367  1_554   S
    C130   O367      1.05367      .   S
    C208   O368      0.68112      .   S
    C255   O368      0.68112      .   S
    C208   O369      0.68112      .   S
    C265   O369      0.68112      .   S
    C34    O370      0.62817      .   S
    C159   O370      0.62817      .   S
    C34    O371      1.11669      .   S
    C8     O371      1.11669  1_455   S
    C159   O372      0.75236      .   S
    C207   O372      0.75236      .   S
    C35    O373      1.11669      .   S
    C7     O373      1.11669  1_455   S
    C116   O374      0.62817      .   S
    C197   O374      0.62817      .   S
    C116   O375      1.11669      .   S
    C23    O375      1.11669      .   S
    C241   O376      0.75236      .   S
    C197   O376      0.75236      .   S
    C241   O377      0.68112      .   S
    C324   O377      0.68112      .   S
    C241   O378      0.68112      .   S
    C336   O378      0.68112      .   S
    C242   O379      0.75236      .   S
    C196   O379      0.75236      .   S
    C242   O380      0.68112      .   S
    C339   O380      0.68112      .   S
    C242   O381      0.68112      .   S
    C325   O381      0.68112      .   S
    C243   O382      0.75236      .   S
    C195   O382      0.75236      .   S
    C243   O383      0.68112      .   S
    C338   O383      0.68112      .   S
    C243   O384      0.68112      .   S
    C326   O384      0.68112      .   S
    C244   O385      0.68112      .   S
    C337   O385      0.68112      .   S
    C244   O386      0.75236      .   S
    C194   O386      0.75236      .   S
    C244   O387      0.68112      .   S
    C327   O387      0.68112      .   S
    C252   O388      0.70406      .   S
    C338   O388      0.70406      .   S
    C252   O389      0.68112      .   S
    C205   O389      0.68112      .   S
    C253   O390      0.70406      .   S
    C337   O390      0.70406      .   S
    C253   O391      0.68112      .   S
    C206   O391      0.68112      .   S
    C254   O392      0.70406      .   S
    C336   O392      0.70406      .   S
    C254   O393      0.68112      .   S
    C207   O393      0.68112      .   S
    C255   O394      0.70406      .   S
    C339   O394      0.70406      .   S
    C119   O395      0.62817      .   S
    C196   O395      0.62817      .   S
    C118   O396      0.62817      .   S
    C195   O396      0.62817      .   S
    C117   O397      0.62817      .   S
    C194   O397      0.62817      .   S
    C117   O398      1.11669      .   S
    C24    O398      1.11669      .   S
    C267   O399      0.70406      .   S
    C327   O399      0.70406      .   S
    C267   O400      0.68112      .   S
    C206   O400      0.68112      .   S
    C197   O401      0.62817      .   S
    C104   O401      0.62817      .   S
    C6     O402      1.05367  1_545   S
    C125   O402      1.05367      .   S
    C6     O403      1.11669  1_554   S
    C30    O403      1.11669      .   S
    C6     O404      1.05367  1_554   S
    C124   O404      1.05367      .   S
    C6     O405      1.05367  1_544   S
    C129   O405      1.05367      .   S
    C7     O406      1.05367  1_455   S
    C127   O406      1.05367      .   S
    C7     O407      1.05367      .   S
    C126   O407      1.05367      .   S
    C7     O408      1.11669  1_554   S
    C40    O408      1.11669      .   S
    C8     O409      1.11669      .   S
    C42    O409      1.11669      .   S
    C8     O410      1.11669  1_554   S
    C41    O410      1.11669      .   S
    C8     O411      1.05367  1_454   S
    C129   O411      1.05367      .   S
    C266   O412      0.70406      .   S
    C324   O412      0.70406      .   S
    C266   O413      0.68112      .   S
    C207   O413      0.68112      .   S
    C265   O414      0.70406      .   S
    C325   O414      0.70406      .   S
    C23    O415      1.11669  1_554   S
    C103   O415      1.11669      .   S
    C23    O416      1.05367  1_554   S
    C154   O416      1.05367      .   S
    C23    O417      1.05367  1_554   S
    C147   O417      1.05367      .   S
    C104   O418      1.11669      .   S
    C25    O418      1.11669      .   S
    C326   O419      0.70406      .   S
    C264   O419      0.70406      .   S
    C264   O420      0.68112      .   S
    C205   O420      0.68112      .   S
    C26    O421      1.05367      .   S
    C152   O421      1.05367      .   S
    C26    O422      1.11669  1_554   S
    C113   O422      1.11669      .   S
    C26    O423      1.05367  1_554   S
    C153   O423      1.05367      .   S
    C26    O424      1.05367  1_554   S
    C147   O424      1.05367      .   S
    C25    O425      1.05367      .   S
    C150   O425      1.05367      .   S
    C25    O426      1.11669  1_554   S
    C112   O426      1.11669      .   S
    C25    O427      1.05367  1_554   S
    C154   O427      1.05367      .   S
    C25    O428      1.05367  1_554   S
    C148   O428      1.05367      .   S
    C24    O429      1.05367      .   S
    C149   O429      1.05367      .   S
    C24    O430      1.05367      .   S
    C151   O430      1.05367      .   S
    C24    O431      1.11669  1_554   S
    C102   O431      1.11669      .   S
    C24    O432      1.05367  1_554   S
    C153   O432      1.05367      .   S
    C24    O433      1.05367  1_554   S
    C148   O433      1.05367      .   S
    C149   O434      1.05367      .   S
    C27    O434      1.05367      .   S
    C150   O435      1.05367      .   S
    C27    O435      1.05367      .   S
    C151   O436      1.05367      .   S
    C27    O436      1.05367      .   S
    C152   O437      1.05367      .   S
    C27    O437      1.05367      .   S
    C128   O438      1.05367      .   S
    C9     O438      1.05367  1_545   S
    C127   O439      1.05367      .   S
    C9     O439      1.05367  1_455   S
    C126   O440      1.05367      .   S
    C9     O440      1.05367      .   S
    C125   O441      1.05367      .   S
    C9     O441      1.05367  1_445   S
    C114   O442      0.62817      .   S
    C198   O442      0.62817      .   S
    C115   O443      0.62817      .   S
    C201   O443      0.62817      .   S
    C42    O444      0.62817      .   S
    C162   O444      0.62817      .   S
    C100   O445      0.62817      .   S
    C193   O445      0.62817      .   S
    C101   O446      0.62817      .   S
    C192   O446      0.62817      .   S
    C43    O447      0.62817      .   S
    C165   O447      0.62817      .   S
    C29    O448      0.62817      .   S
    C156   O448      0.62817      .   S
    C1     O449      0.62817      .   S
    C157   O449      0.62817      .   S
    C27    O450      1.11669      .   S
    C121   O450      1.11669      .   S
    C27    O451      1.11669      .   S
    C108   O451      1.11669      .   S
    C9     O452      1.11669  1_455   S
    C50    O452      1.11669      .   S
    C9     O453      1.11669  1_545   S
    C39    O453      1.11669      .   S
    C156   O454      0.62817      .   S
    C50    O454      0.62817      .   S
    C156   O455      0.75236      .   S
    C202   O455      0.75236      .   S
    C157   O456      0.62817      .   S
    C49    O456      0.62817      .   S
    C157   O457      0.75236      .   S
    C4     O457      0.75236      .   S
    C192   O458      0.62817      .   S
    C122   O458      0.62817      .   S
    C192   O459      0.75236      .   S
    C238   O459      0.75236      .   S
    C193   O460      0.62817      .   S
    C121   O460      0.62817      .   S
    C193   O461      0.75236      .   S
    C237   O461      0.75236      .   S
    C198   O462      0.62817      .   S
    C111   O462      0.62817      .   S
    C198   O463      0.75236      .   S
    C248   O463      0.75236      .   S
    C162   O464      0.62817      .   S
    C39    O464      0.62817      .   S
    C162   O465      0.75236      .   S
    C212   O465      0.75236      .   S
    C165   O466      0.62817      .   S
    C36    O466      0.62817      .   S
    C165   O467      0.75236      .   S
    C209   O467      0.75236      .   S
    C201   O468      0.62817      .   S
    C108   O468      0.62817      .   S
    C201   O469      0.75236      .   S
    C245   O469      0.75236      .   S
    C334   O470      0.68112      .   S
    C248   O470      0.68112      .   S
    C334   O471      0.70406      .   S
    C305   O471      0.70406      .   S
    C262   O472      0.68112      .   S
    C212   O472      0.68112      .   S
    C262   O473      0.70406      .   S
    C281   O473      0.70406      .   S
    C263   O474      0.68112      .   S
    C209   O474      0.68112      .   S
    C263   O475      0.70406      .   S
    C282   O475      0.70406      .   S
    C335   O476      0.68112      .   S
    C245   O476      0.68112      .   S
    C335   O477      0.70406      .   S
    C306   O477      0.70406      .   S
    C321   O478      0.68112      .   S
    C238   O478      0.68112      .   S
    C321   O479      0.70406      .   S
    C292   O479      0.70406      .   S
    C249   O480      0.68112      .   S
    C202   O480      0.68112      .   S
    C249   O481      0.70406      .   S
    C316   O481      0.70406      .   S
    C320   O482      0.68112      .   S
    C237   O482      0.68112      .   S
    C320   O483      0.70406      .   S
    C295   O483      0.70406      .   S
    C5     O484      0.68112      .   S
    C4     O484      0.68112      .   S
    C5     O485      0.70406      .   S
    C319   O485      0.70406      .   S
    C212   O486      0.68112      .   S
    C259   O486      0.68112      .   S
    C209   O487      0.68112      .   S
    C256   O487      0.68112      .   S
    C4     O488      0.68112      .   S
    C269   O488      0.68112      .   S
    C248   O489      0.68112      .   S
    C331   O489      0.68112      .   S
    C245   O490      0.68112      .   S
    C328   O490      0.68112      .   S
    C202   O491      0.68112      .   S
    C270   O491      0.68112      .   S
    C237   O492      0.68112      .   S
    C341   O492      0.68112      .   S
    C238   O493      0.68112      .   S
    C342   O493      0.68112      .   S
    C316   O494      0.68112      .   S
    C228   O494      0.68112      .   S
    C282   O495      0.68112      .   S
    C223   O495      0.68112      .   S
    C319   O496      0.68112      .   S
    C227   O496      0.68112      .   S
    C281   O497      0.68112      .   S
    C222   O497      0.68112      .   S
    C305   O498      0.68112      .   S
    C234   O498      0.68112      .   S
    C306   O499      0.68112      .   S
    C235   O499      0.68112      .   S
    C295   O500      0.68112      .   S
    C215   O500      0.68112      .   S
    C292   O501      0.68112      .   S
    C216   O501      0.68112      .   S
    C259   O502      0.70406      .   S
    C284   O502      0.70406      .   S
    C270   O503      0.70406      .   S
    C299   O503      0.70406      .   S
    C269   O504      0.70406      .   S
    C298   O504      0.70406      .   S
    C256   O505      0.70406      .   S
    C285   O505      0.70406      .   S
    C342   O506      0.70406      .   S
    C275   O506      0.70406      .   S
    C331   O507      0.70406      .   S
    C308   O507      0.70406      .   S
    C328   O508      0.70406      .   S
    C309   O508      0.70406      .   S
    C341   O509      0.70406      .   S
    C274   O509      0.70406      .   S
    C215   O510      0.68112      .   S
    C274   O510      0.68112      .   S
    C215   O511      0.75236      .   S
    C167   O511      0.75236      .   S
    C235   O512      0.68112      .   S
    C309   O512      0.68112      .   S
    C235   O513      0.75236      .   S
    C187   O513      0.75236      .   S
    C234   O514      0.68112      .   S
    C308   O514      0.68112      .   S
    C234   O515      0.75236      .   S
    C188   O515      0.75236      .   S
    C216   O516      0.68112      .   S
    C275   O516      0.68112      .   S
    C216   O517      0.75236      .   S
    C166   O517      0.75236      .   S
    C228   O518      0.68112      .   S
    C299   O518      0.68112      .   S
    C228   O519      0.75236      .   S
    C178   O519      0.75236      .   S
    C222   O520      0.68112      .   S
    C284   O520      0.68112      .   S
    C222   O521      0.75236      .   S
    C176   O521      0.75236      .   S
    C227   O522      0.68112      .   S
    C298   O522      0.68112      .   S
    C227   O523      0.75236      .   S
    C179   O523      0.75236      .   S
    C223   O524      0.68112      .   S
    C285   O524      0.68112      .   S
    C223   O525      0.75236      .   S
    C175   O525      0.75236      .   S
    C85    O526      0.62817      .   S
    C188   O526      0.62817      .   S
    C75    O527      0.62817      .   S
    C167   O527      0.62817      .   S
    C75    O528      1.11669      .   S
    C16    O528      1.11669  1_455   S
    C96    O529      0.62817      .   S
    C178   O529      0.62817      .   S
    C96    O530      1.11669      .   S
    C22    O530      1.11669      .   S
    C62    O531      0.62817      .   S
    C175   O531      0.62817      .   S
    C61    O532      0.62817      .   S
    C176   O532      0.62817      .   S
    C61    O533      1.11669      .   S
    C16    O533      1.11669      .   S
    C72    O534      0.62817      .   S
    C166   O534      0.62817      .   S
    C86    O535      0.62817      .   S
    C187   O535      0.62817      .   S
    C86    O536      1.11669      .   S
    C22    O536      1.11669  1_545   S
    C99    O537      0.62817      .   S
    C179   O537      0.62817      .   S
    C166   O538      0.62817      .   S
    C55    O538      0.62817      .   S
    C188   O539      0.62817      .   S
    C88    O539      0.62817      .   S
    C175   O540      0.62817      .   S
    C65    O540      0.62817      .   S
    C176   O541      0.62817      .   S
    C64    O541      0.62817      .   S
    C167   O542      0.62817      .   S
    C54    O542      0.62817      .   S
    C178   O543      0.62817      .   S
    C79    O543      0.62817      .   S
    C187   O544      0.62817      .   S
    C89    O544      0.62817      .   S
    C179   O545      0.62817      .   S
    C78    O545      0.62817      .   S
    C22    O546      1.05367  1_545   S
    C139   O546      1.05367      .   S
    C22    O547      1.05367      .   S
    C146   O547      1.05367      .   S
    C22    O548      1.05367  1_545   S
    C145   O548      1.05367      .   S
    C16    O549      1.05367  1_455   S
    C132   O549      1.05367      .   S
    C16    O550      1.05367  1_455   S
    C137   O550      1.05367      .   S
    C139   O551      1.05367      .   S
    C17    O551      1.05367  1_545   S
    C140   O552      1.05367      .   S
    C19    O552      1.05367      .   S
    C140   O553      1.05367      .   S
    C18    O553      1.05367      .   S
    C131   O554      1.05367      .   S
    C11    O554      1.05367      .   S
    C131   O555      1.05367      .   S
    C14    O555      1.05367      .   S
    C132   O556      1.05367      .   S
    C13    O556      1.05367  1_455   S
    C146   O557      1.05367      .   S
    C17    O557      1.05367      .   S
    C145   O558      1.05367      .   S
    C18    O558      1.05367  1_545   S
    C137   O559      1.05367      .   S
    C14    O559      1.05367  1_455   S
    C138   O560      1.05367      .   S
    C11    O560      1.05367      .   S
    C138   O561      1.05367      .   S
    C13    O561      1.05367      .   S
    C276   O562      0.70406      .   S
    C314   O562      0.70406      .   S
    C276   O563      0.68112      .   S
    C217   O563      0.68112      .   S
    C277   O564      0.70406      .   S
    C313   O564      0.70406      .   S
    C277   O565      0.68112      .   S
    C218   O565      0.68112      .   S
    C278   O566      0.70406      .   S
    C312   O566      0.70406      .   S
    C278   O567      0.68112      .   S
    C219   O567      0.68112      .   S
    C279   O568      0.70406      .   S
    C315   O568      0.70406      .   S
    C279   O569      0.68112      .   S
    C220   O569      0.68112      .   S
    C288   O570      0.70406      .   S
    C302   O570      0.70406      .   S
    C288   O571      0.68112      .   S
    C217   O571      0.68112      .   S
    C289   O572      0.70406      .   S
    C301   O572      0.70406      .   S
    C289   O573      0.68112      .   S
    C220   O573      0.68112      .   S
    C172   O574      0.75236      .   S
    C218   O574      0.75236      .   S
    C172   O575      0.62817      .   S
    C57    O575      0.62817      .   S
    C172   O576      0.62817      .   S
    C71    O576      0.62817      .   S
    C302   O577      0.68112      .   S
    C231   O577      0.68112      .   S
    C312   O578      0.68112      .   S
    C229   O578      0.68112      .   S
    C313   O579      0.68112      .   S
    C232   O579      0.68112      .   S
    C232   O580      0.68112      .   S
    C303   O580      0.68112      .   S
    C232   O581      0.75236      .   S
    C182   O581      0.75236      .   S
    C231   O582      0.68112      .   S
    C314   O582      0.68112      .   S
    C231   O583      0.75236      .   S
    C183   O583      0.75236      .   S
    C230   O584      0.68112      .   S
    C315   O584      0.68112      .   S
    C230   O585      0.68112      .   S
    C301   O585      0.68112      .   S
    C230   O586      0.75236      .   S
    C184   O586      0.75236      .   S
    C303   O587      0.70406      .   S
    C291   O587      0.70406      .   S
    C217   O588      0.75236      .   S
    C173   O588      0.75236      .   S
    C229   O589      0.68112      .   S
    C300   O589      0.68112      .   S
    C229   O590      0.75236      .   S
    C185   O590      0.75236      .   S
    C300   O591      0.70406      .   S
    C290   O591      0.70406      .   S
    C291   O592      0.68112      .   S
    C218   O592      0.68112      .   S
    C220   O593      0.75236      .   S
    C170   O593      0.75236      .   S
    C290   O594      0.68112      .   S
    C219   O594      0.68112      .   S
    C219   O595      0.75236      .   S
    C171   O595      0.75236      .   S
    C81    O596      1.11669      .   S
    C20    O596      1.11669      .   S
    C81    O597      0.62817      .   S
    C184   O597      0.62817      .   S
    C20    O598      1.11669      .   S
    C90    O598      1.11669      .   S
    C19    O599      1.11669      .   S
    C80    O599      1.11669      .   S
    C19    O600      1.05367      .   S
    C142   O600      1.05367      .   S
    C19    O601      1.11669      .   S
    C91    O601      1.11669      .   S
    C18    O602      1.11669  1_545   S
    C94    O602      1.11669      .   S
    C18    O603      1.05367  1_545   S
    C141   O603      1.05367      .   S
    C18    O604      1.05367      .   S
    C143   O604      1.05367      .   S
    C18    O605      1.11669      .   S
    C77    O605      1.11669      .   S
    C17    O606      1.11669  1_545   S
    C95    O606      1.11669      .   S
    C17    O607      1.05367  1_545   S
    C144   O607      1.05367      .   S
    C17    O608      1.11669      .   S
    C76    O608      1.11669      .   S
    C56    O609      0.62817      .   S
    C173   O609      0.62817      .   S
    C58    O610      0.62817      .   S
    C171   O610      0.62817      .   S
    C58    O611      1.11669      .   S
    C14    O611      1.11669  1_455   S
    C59    O612      0.62817      .   S
    C170   O612      0.62817      .   S
    C59    O613      1.11669      .   S
    C13    O613      1.11669  1_455   S
    C170   O614      0.62817      .   S
    C69    O614      0.62817      .   S
    C68    O615      0.62817      .   S
    C173   O615      0.62817      .   S
    C68    O616      1.11669      .   S
    C11    O616      1.11669      .   S
    C171   O617      0.62817      .   S
    C70    O617      0.62817      .   S
    C69    O618      1.11669      .   S
    C12    O618      1.11669      .   S
    C94    O619      0.62817      .   S
    C183   O619      0.62817      .   S
    C11    O620      1.05367      .   S
    C136   O620      1.05367      .   S
    C11    O621      1.11669      .   S
    C52    O621      1.11669      .   S
    C80    O622      0.62817      .   S
    C185   O622      0.62817      .   S
    C12    O623      1.11669      .   S
    C53    O623      1.11669      .   S
    C13    O624      1.05367      .   S
    C134   O624      1.05367      .   S
    C13    O625      1.05367  1_455   S
    C135   O625      1.05367      .   S
    C13    O626      1.11669      .   S
    C67    O626      1.11669      .   S
    C82    O627      0.62817      .   S
    C183   O627      0.62817      .   S
    C83    O628      0.62817      .   S
    C182   O628      0.62817      .   S
    C185   O629      0.62817      .   S
    C92    O629      0.62817      .   S
    C184   O630      0.62817      .   S
    C95    O630      0.62817      .   S
    C14    O631      1.05367  1_455   S
    C133   O631      1.05367      .   S
    C14    O632      1.05367      .   S
    C136   O632      1.05367      .   S
    C14    O633      1.11669      .   S
    C66    O633      1.11669      .   S
    C182   O634      0.62817      .   S
    C93    O634      0.62817      .   S
    C133   O635      1.05367      .   S
    C15    O635      1.05367  1_455   S
    C134   O636      1.05367      .   S
    C15    O636      1.05367      .   S
    C135   O637      1.05367      .   S
    C15    O637      1.05367  1_455   S
    C141   O638      1.05367      .   S
    C21    O638      1.05367  1_545   S
    C142   O639      1.05367      .   S
    C21    O639      1.05367      .   S
    C143   O640      1.05367      .   S
    C21    O640      1.05367      .   S
    C144   O641      1.05367      .   S
    C21    O641      1.05367  1_545   S
    C66    O642      0.62817      .   S
    C174   O642      0.62817      .   S
    C77    O643      0.62817      .   S
    C180   O643      0.62817      .   S
    C76    O644      0.62817      .   S
    C181   O644      0.62817      .   S
    C67    O645      0.62817      .   S
    C177   O645      0.62817      .   S
    C91    O646      0.62817      .   S
    C189   O646      0.62817      .   S
    C90    O647      0.62817      .   S
    C186   O647      0.62817      .   S
    C53    O648      0.62817      .   S
    C168   O648      0.62817      .   S
    C52    O649      0.62817      .   S
    C169   O649      0.62817      .   S
    C21    O650      1.11669      .   S
    C97    O650      1.11669      .   S
    C21    O651      1.11669  1_545   S
    C87    O651      1.11669      .   S
    C15    O652      1.11669  1_455   S
    C74    O652      1.11669      .   S
    C15    O653      1.11669      .   S
    C60    O653      1.11669      .   S
    C168   O654      0.62817      .   S
    C74    O654      0.62817      .   S
    C168   O655      0.75236      .   S
    C214   O655      0.75236      .   S
    C186   O656      0.62817      .   S
    C87    O656      0.62817      .   S
    C186   O657      0.75236      .   S
    C236   O657      0.75236      .   S
    C189   O658      0.62817      .   S
    C84    O658      0.62817      .   S
    C189   O659      0.75236      .   S
    C233   O659      0.75236      .   S
    C169   O660      0.62817      .   S
    C73    O660      0.62817      .   S
    C169   O661      0.75236      .   S
    C213   O661      0.75236      .   S
    C180   O662      0.62817      .   S
    C98    O662      0.62817      .   S
    C180   O663      0.75236      .   S
    C226   O663      0.75236      .   S
    C177   O664      0.62817      .   S
    C60    O664      0.62817      .   S
    C177   O665      0.75236      .   S
    C221   O665      0.75236      .   S
    C174   O666      0.62817      .   S
    C63    O666      0.62817      .   S
    C174   O667      0.75236      .   S
    C224   O667      0.75236      .   S
    C181   O668      0.62817      .   S
    C97    O668      0.62817      .   S
    C181   O669      0.75236      .   S
    C225   O669      0.75236      .   S
    C287   O670      0.68112      .   S
    C221   O670      0.68112      .   S
    C287   O671      0.70406      .   S
    C258   O671      0.70406      .   S
    C272   O672      0.68112      .   S
    C213   O672      0.68112      .   S
    C272   O673      0.70406      .   S
    C343   O673      0.70406      .   S
    C286   O674      0.68112      .   S
    C224   O674      0.68112      .   S
    C286   O675      0.70406      .   S
    C257   O675      0.70406      .   S
    C273   O676      0.68112      .   S
    C214   O676      0.68112      .   S
    C273   O677      0.70406      .   S
    C340   O677      0.70406      .   S
    C296   O678      0.68112      .   S
    C225   O678      0.68112      .   S
    C296   O679      0.70406      .   S
    C271   O679      0.70406      .   S
    C297   O680      0.68112      .   S
    C226   O680      0.68112      .   S
    C297   O681      0.70406      .   S
    C268   O681      0.70406      .   S
    C310   O682      0.68112      .   S
    C236   O682      0.68112      .   S
    C310   O683      0.70406      .   S
    C329   O683      0.70406      .   S
    C311   O684      0.68112      .   S
    C233   O684      0.68112      .   S
    C311   O685      0.70406      .   S
    C330   O685      0.70406      .   S
    C213   O686      0.68112      .   S
    C293   O686      0.68112      .   S
    C236   O687      0.68112      .   S
    C307   O687      0.68112      .   S
    C214   O688      0.68112      .   S
    C294   O688      0.68112      .   S
    C221   O689      0.68112      .   S
    C280   O689      0.68112      .   S
    C224   O690      0.68112      .   S
    C283   O690      0.68112      .   S
    C225   O691      0.68112      .   S
    C317   O691      0.68112      .   S
    C226   O692      0.68112      .   S
    C318   O692      0.68112      .   S
    C233   O693      0.68112      .   S
    C304   O693      0.68112      .   S
    C330   O694      0.68112      .   S
    C247   O694      0.68112      .   S
    C329   O695      0.68112      .   S
    C246   O695      0.68112      .   S
    C271   O696      0.68112      .   S
    C203   O696      0.68112      .   S
    C340   O697      0.68112      .   S
    C240   O697      0.68112      .   S
    C343   O698      0.68112      .   S
    C239   O698      0.68112      .   S
    C268   O699      0.68112      .   S
    C204   O699      0.68112      .   S
    C257   O700      0.68112      .   S
    C210   O700      0.68112      .   S
    C258   O701      0.68112      .   S
    C211   O701      0.68112      .   S
    C280   O702      0.70406      .   S
    C261   O702      0.70406      .   S
    C283   O703      0.70406      .   S
    C260   O703      0.70406      .   S
    C317   O704      0.70406      .   S
    C250   O704      0.70406      .   S
    C307   O705      0.70406      .   S
    C332   O705      0.70406      .   S
    C318   O706      0.70406      .   S
    C251   O706      0.70406      .   S
    C304   O707      0.70406      .   S
    C333   O707      0.70406      .   S
    C294   O708      0.70406      .   S
    C323   O708      0.70406      .   S
    C293   O709      0.70406      .   S
    C322   O709      0.70406      .   S
    C239   O710      0.68112      .   S
    C322   O710      0.68112      .   S
    C239   O711      0.75236      .   S
    C191   O711      0.75236      .   S
    C240   O712      0.68112      .   S
    C323   O712      0.68112      .   S
    C240   O713      0.75236      .   S
    C190   O713      0.75236      .   S
    C246   O714      0.68112      .   S
    C332   O714      0.68112      .   S
    C246   O715      0.75236      .   S
    C200   O715      0.75236      .   S
    C247   O716      0.68112      .   S
    C333   O716      0.68112      .   S
    C247   O717      0.75236      .   S
    C199   O717      0.75236      .   S
    C203   O718      0.68112      .   S
    C250   O718      0.68112      .   S
    C203   O719      0.75236      .   S
    C155   O719      0.75236      .   S
    C204   O720      0.68112      .   S
    C251   O720      0.68112      .   S
    C211   O721      0.68112      .   S
    C261   O721      0.68112      .   S
    C211   O722      0.75236      .   S
    C163   O722      0.75236      .   S
    C210   O723      0.68112      .   S
    C260   O723      0.68112      .   S
    C210   O724      0.75236      .   S
    C164   O724      0.75236      .   S
    C38    O725      0.62817      .   S
    C163   O725      0.62817      .   S
    C38    O726      1.11669      .   S
    C10    O726      1.11669  1_545   S
    C37    O727      0.62817      .   S
    C164   O727      0.62817      .   S
    C51    O728      0.62817      .   S
    C155   O728      0.62817      .   S
    C51    O729      1.11669      .   S
    C10    O729      1.11669  1_455   S
    C110   O730      0.62817      .   S
    C199   O730      0.62817      .   S
    C109   O731      0.62817      .   S
    C200   O731      0.62817      .   S
    C109   O732      1.11669      .   S
    C28    O732      1.11669      .   S
    C123   O733      0.62817      .   S
    C191   O733      0.62817      .   S
    C120   O734      0.62817      .   S
    C190   O734      0.62817      .   S
    C120   O735      1.11669      .   S
    C28    O735      1.11669      .   S
    C155   O736      0.62817      .   S
    C30    O736      0.62817      .   S
    C163   O737      0.62817      .   S
    C41    O737      0.62817      .   S
    C164   O738      0.62817      .   S
    C40    O738      0.62817      .   S
    C199   O739      0.62817      .   S
    C113   O739      0.62817      .   S
    C190   O740      0.62817      .   S
    C103   O740      0.62817      .   S
    C191   O741      0.62817      .   S
    C102   O741      0.62817      .   S
    C200   O742      0.62817      .   S
    C112   O742      0.62817      .   S
    C10    O743      1.05367  1_455   S
    C124   O743      1.05367      .   S
    C10    O744      1.05367      .   S
    C130   O744      1.05367      .   S
    C1     O745      1.11669      .   S
    C0     O745      1.11669      .   S
    C2     O746      1.05367      .   S
    C8     O746      1.05367  1_554   S
    C29    O747      1.11669      .   S
    C6     O747      1.11669      .   S
    C32    O748      1.11669      .   S
    C7     O748      1.11669      .   S
    C33    O749      1.11669      .   S
    C8     O749      1.11669      .   S
    C36    O750      1.11669      .   S
    C9     O750      1.11669      .   S
    C37    O751      1.11669      .   S
    C10    O751      1.11669      .   S
    C43    O752      1.11669      .   S
    C7     O752      1.11669      .   S
    C44    O753      1.11669      .   S
    C0     O753      1.11669      .   S
    C45    O754      1.11669      .   S
    C6     O754      1.11669      .   S
    C48    O755      1.11669      .   S
    C10    O755      1.11669      .   S
    C49    O756      1.11669      .   S
    C9     O756      1.11669      .   S
    C54    O757      1.11669      .   S
    C12    O757      1.11669      .   S
    C55    O758      1.11669      .   S
    C11    O758      1.11669      .   S
    C56    O759      1.11669      .   S
    C13    O759      1.11669      .   S
    C57    O760      1.11669      .   S
    C14    O760      1.11669      .   S
    C62    O761      1.11669      .   S
    C16    O761      1.11669      .   S
    C63    O762      1.11669      .   S
    C15    O762      1.11669      .   S
    C64    O763      1.11669      .   S
    C13    O763      1.11669      .   S
    C65    O764      1.11669      .   S
    C14    O764      1.11669      .   S
    C70    O765      1.11669      .   S
    C12    O765      1.11669      .   S
    C71    O766      1.11669      .   S
    C11    O766      1.11669      .   S
    C72    O767      1.11669      .   S
    C16    O767      1.11669      .   S
    C73    O768      1.11669      .   S
    C15    O768      1.11669      .   S
    C78    O769      1.11669      .   S
    C18    O769      1.11669      .   S
    C79    O770      1.11669      .   S
    C17    O770      1.11669      .   S
    C82    O771      1.11669      .   S
    C20    O771      1.11669      .   S
    C83    O772      1.11669      .   S
    C19    O772      1.11669      .   S
    C84    O773      1.11669      .   S
    C21    O773      1.11669      .   S
    C85    O774      1.11669      .   S
    C22    O774      1.11669      .   S
    C88    O775      1.11669      .   S
    C19    O775      1.11669      .   S
    C89    O776      1.11669      .   S
    C20    O776      1.11669      .   S
    C92    O777      1.11669      .   S
    C17    O777      1.11669      .   S
    C93    O778      1.11669      .   S
    C18    O778      1.11669      .   S
    C98    O779      1.11669      .   S
    C21    O779      1.11669      .   S
    C99    O780      1.11669      .   S
    C22    O780      1.11669      .   S
    C100   O781      1.11669      .   S
    C23    O781      1.11669      .   S
    C101   O782      1.11669      .   S
    C24    O782      1.11669      .   S
    C106   O783      1.11669      .   S
    C26    O783      1.11669      .   S
    C107   O784      1.11669      .   S
    C25    O784      1.11669      .   S
    C110   O785      1.11669      .   S
    C28    O785      1.11669      .   S
    C111   O786      1.11669      .   S
    C27    O786      1.11669      .   S
    C114   O787      1.11669      .   S
    C26    O787      1.11669      .   S
    C115   O788      1.11669      .   S
    C25    O788      1.11669      .   S
    C118   O789      1.11669      .   S
    C24    O789      1.11669      .   S
    C119   O790      1.11669      .   S
    C23    O790      1.11669      .   S
    C122   O791      1.11669      .   S
    C27    O791      1.11669      .   S
    C123   O792      1.11669      .   S
    C28    O792      1.11669      .   S
    C124   O793      1.05367      .   S
    C7     O793      1.05367  1_454   S
    C125   O794      1.05367      .   S
    C8     O794      1.05367  1_455   S
    C126   O795      1.05367      .   S
    C0     O795      1.05367      .   S
    C127   O796      1.05367      .   S
    C6     O796      1.05367      .   S
    C128   O797      1.05367      .   S
    C8     O797      1.05367      .   S
    C129   O798      1.05367      .   S
    C10    O798      1.05367  1_445   S
    C130   O799      1.05367      .   S
    C7     O799      1.05367  1_554   S
    C131   O800      1.05367      .   S
    C16    O800      1.05367      .   S
    C132   O801      1.05367      .   S
    C12    O801      1.05367      .   S
    C133   O802      1.05367      .   S
    C12    O802      1.05367      .   S
    C134   O803      1.05367      .   S
    C11    O803      1.05367      .   S
    C135   O804      1.05367      .   S
    C12    O804      1.05367      .   S
    C136   O805      1.05367      .   S
    C15    O805      1.05367      .   S
    C137   O806      1.05367      .   S
    C12    O806      1.05367      .   S
    C138   O807      1.05367      .   S
    C16    O807      1.05367      .   S
    C139   O808      1.05367      .   S
    C20    O808      1.05367      .   S
    C140   O809      1.05367      .   S
    C22    O809      1.05367      .   S
    C141   O810      1.05367      .   S
    C20    O810      1.05367      .   S
    C142   O811      1.05367      .   S
    C17    O811      1.05367      .   S
    C143   O812      1.05367      .   S
    C19    O812      1.05367      .   S
    C144   O813      1.05367      .   S
    C20    O813      1.05367      .   S
    C145   O814      1.05367      .   S
    C20    O814      1.05367      .   S
    C146   O815      1.05367      .   S
    C19    O815      1.05367      .   S
    C147   O816      1.05367      .   S
    C28    O816      1.05367      .   S
    C148   O817      1.05367      .   S
    C28    O817      1.05367      .   S
    C149   O818      1.05367      .   S
    C26    O818      1.05367      .   S
    C150   O819      1.05367      .   S
    C23    O819      1.05367      .   S
    C151   O820      1.05367      .   S
    C25    O820      1.05367      .   S
    C152   O821      1.05367      .   S
    C23    O821      1.05367      .   S
    C153   O822      1.05367      .   S
    C28    O822      1.05367      .   S
    C154   O823      1.05367      .   S
    C28    O823      1.05367      .   S
