# CIF file generated by openbabel 2.4.90, see http://openbabel.sf.net
data_I
_chemical_name_common ''
_cell_length_a 20.7004
_cell_length_b 20.7004
_cell_length_c 20.7004
_cell_angle_alpha 90
_cell_angle_beta 90
_cell_angle_gamma 90
_space_group_name_H-M_alt 'P 1'
_space_group_name_Hall 'P 1'
loop_
    _symmetry_equiv_pos_as_xyz
    x,y,z
loop_
    _atom_site_label
    _atom_site_type_symbol
    _atom_site_fract_x
    _atom_site_fract_y
    _atom_site_fract_z
    _atom_site_occupancy
    O0      O    0.17047   0.00000   0.09530   1.000
    O1      O    0.05610   0.94390   0.94390   1.000
    C2      C    0.15360   0.00000   0.84640   1.000
    C3      C    0.20500   0.00000   0.20500   1.000
    C4      C    0.26750   0.00000   0.18440   1.000
    C5      C    0.00000   0.26750   0.81560   1.000
    C6      C    0.00000   0.73250   0.81560   1.000
    C7      C    0.00000   0.73250   0.18440   1.000
    O8      O    0.05610   0.94390   0.05610   1.000
    O9      O    0.94390   0.94390   0.94390   1.000
    O10     O    0.05610   0.05610   0.94390   1.000
    O11     O    0.05610   0.44390   0.44390   1.000
    O12     O    0.82953   0.00000   0.09530   1.000
    O13     O    0.82953   0.00000   0.90470   1.000
    O14     O    0.17047   0.00000   0.90470   1.000
    O15     O    0.09530   0.17047   0.00000   1.000
    O16     O    0.09530   0.82953   0.00000   1.000
    O17     O    0.90470   0.82953   0.00000   1.000
    O18     O    0.90470   0.17047   0.00000   1.000
    O19     O    0.00000   0.09530   0.17047   1.000
    O20     O    0.00000   0.09530   0.82953   1.000
    O21     O    0.00000   0.90470   0.82953   1.000
    O22     O    0.00000   0.90470   0.17047   1.000
    O23     O    0.00000   0.17047   0.90470   1.000
    O24     O    0.00000   0.82953   0.90470   1.000
    O25     O    0.00000   0.82953   0.09530   1.000
    O26     O    0.00000   0.17047   0.09530   1.000
    O27     O    0.17047   0.09530   0.00000   1.000
    O28     O    0.82953   0.09530   0.00000   1.000
    O29     O    0.82953   0.90470   0.00000   1.000
    O30     O    0.17047   0.90470   0.00000   1.000
    O31     O    0.09530   0.00000   0.82953   1.000
    O32     O    0.09530   0.00000   0.17047   1.000
    O33     O    0.90470   0.00000   0.17047   1.000
    O34     O    0.90470   0.00000   0.82953   1.000
    O35     O    0.17047   0.50000   0.59530   1.000
    O36     O    0.82953   0.50000   0.59530   1.000
    O37     O    0.82953   0.50000   0.40470   1.000
    O38     O    0.17047   0.50000   0.40470   1.000
    O39     O    0.09530   0.67047   0.50000   1.000
    O40     O    0.09530   0.32953   0.50000   1.000
    O41     O    0.90470   0.32953   0.50000   1.000
    O42     O    0.90470   0.67047   0.50000   1.000
    O43     O    0.00000   0.59530   0.67047   1.000
    O44     O    0.00000   0.59530   0.32953   1.000
    O45     O    0.00000   0.40470   0.32953   1.000
    O46     O    0.00000   0.40470   0.67047   1.000
    O47     O    0.00000   0.67047   0.40470   1.000
    O48     O    0.00000   0.32953   0.40470   1.000
    O49     O    0.00000   0.32953   0.59530   1.000
    O50     O    0.00000   0.67047   0.59530   1.000
    O51     O    0.17047   0.59530   0.50000   1.000
    O52     O    0.82953   0.59530   0.50000   1.000
    O53     O    0.82953   0.40470   0.50000   1.000
    O54     O    0.17047   0.40470   0.50000   1.000
    O55     O    0.09530   0.50000   0.32953   1.000
    O56     O    0.09530   0.50000   0.67047   1.000
    O57     O    0.90470   0.50000   0.67047   1.000
    O58     O    0.90470   0.50000   0.32953   1.000
    O59     O    0.67047   0.00000   0.59530   1.000
    O60     O    0.32953   0.00000   0.59530   1.000
    O61     O    0.32953   0.00000   0.40470   1.000
    O62     O    0.67047   0.00000   0.40470   1.000
    O63     O    0.59530   0.17047   0.50000   1.000
    O64     O    0.59530   0.82953   0.50000   1.000
    O65     O    0.40470   0.82953   0.50000   1.000
    O66     O    0.40470   0.17047   0.50000   1.000
    O67     O    0.50000   0.09530   0.67047   1.000
    O68     O    0.50000   0.09530   0.32953   1.000
    O69     O    0.50000   0.90470   0.32953   1.000
    O70     O    0.50000   0.90470   0.67047   1.000
    O71     O    0.50000   0.17047   0.40470   1.000
    O72     O    0.50000   0.82953   0.40470   1.000
    O73     O    0.50000   0.82953   0.59530   1.000
    O74     O    0.50000   0.17047   0.59530   1.000
    O75     O    0.67047   0.09530   0.50000   1.000
    O76     O    0.32953   0.09530   0.50000   1.000
    O77     O    0.32953   0.90470   0.50000   1.000
    O78     O    0.67047   0.90470   0.50000   1.000
    O79     O    0.59530   0.00000   0.32953   1.000
    O80     O    0.59530   0.00000   0.67047   1.000
    O81     O    0.40470   0.00000   0.67047   1.000
    O82     O    0.40470   0.00000   0.32953   1.000
    C83     C    0.50000   0.34640   0.84640   1.000
    C84     C    0.50000   0.65360   0.84640   1.000
    O85     O    0.67047   0.50000   0.09530   1.000
    O86     O    0.32953   0.50000   0.09530   1.000
    O87     O    0.32953   0.50000   0.90470   1.000
    O88     O    0.67047   0.50000   0.90470   1.000
    O89     O    0.59530   0.67047   0.00000   1.000
    O90     O    0.59530   0.32953   0.00000   1.000
    O91     O    0.40470   0.32953   0.00000   1.000
    O92     O    0.40470   0.67047   0.00000   1.000
    O93     O    0.50000   0.59530   0.17047   1.000
    O94     O    0.50000   0.59530   0.82953   1.000
    O95     O    0.50000   0.40470   0.82953   1.000
    O96     O    0.50000   0.40470   0.17047   1.000
    O97     O    0.50000   0.67047   0.90470   1.000
    O98     O    0.50000   0.32953   0.90470   1.000
    O99     O    0.50000   0.32953   0.09530   1.000
    O100    O    0.50000   0.67047   0.09530   1.000
    O101    O    0.67047   0.59530   0.00000   1.000
    O102    O    0.32953   0.59530   0.00000   1.000
    O103    O    0.32953   0.40470   0.00000   1.000
    O104    O    0.67047   0.40470   0.00000   1.000
    O105    O    0.59530   0.50000   0.82953   1.000
    O106    O    0.59530   0.50000   0.17047   1.000
    O107    O    0.40470   0.50000   0.17047   1.000
    O108    O    0.40470   0.50000   0.82953   1.000
    O109    O    0.94390   0.05610   0.94390   1.000
    O110    O    0.94390   0.94390   0.05610   1.000
    O111    O    0.05610   0.05610   0.05610   1.000
    O112    O    0.94390   0.05610   0.05610   1.000
    O113    O    0.94390   0.55610   0.44390   1.000
    O114    O    0.94390   0.44390   0.55610   1.000
    O115    O    0.05610   0.55610   0.55610   1.000
    O116    O    0.94390   0.55610   0.55610   1.000
    O117    O    0.05610   0.44390   0.55610   1.000
    O118    O    0.94390   0.44390   0.44390   1.000
    O119    O    0.05610   0.55610   0.44390   1.000
    O120    O    0.55610   0.94390   0.44390   1.000
    O121    O    0.44390   0.05610   0.44390   1.000
    O122    O    0.44390   0.94390   0.55610   1.000
    O123    O    0.55610   0.05610   0.55610   1.000
    O124    O    0.44390   0.05610   0.55610   1.000
    O125    O    0.55610   0.94390   0.55610   1.000
    O126    O    0.44390   0.94390   0.44390   1.000
    O127    O    0.55610   0.05610   0.44390   1.000
    O128    O    0.55610   0.44390   0.94390   1.000
    O129    O    0.44390   0.55610   0.94390   1.000
    O130    O    0.44390   0.44390   0.05610   1.000
    O131    O    0.55610   0.55610   0.05610   1.000
    O132    O    0.44390   0.55610   0.05610   1.000
    O133    O    0.55610   0.44390   0.05610   1.000
    O134    O    0.44390   0.44390   0.94390   1.000
    O135    O    0.55610   0.55610   0.94390   1.000
    C136    C    0.20500   0.50000   0.29500   1.000
    C137    C    0.20500   0.70500   0.50000   1.000
    C138    C    0.20500   0.29500   0.50000   1.000
    C139    C    0.84640   0.00000   0.84640   1.000
    C140    C    0.84640   0.00000   0.15360   1.000
    C141    C    0.15360   0.00000   0.15360   1.000
    C142    C    0.84640   0.15360   0.00000   1.000
    C143    C    0.84640   0.84640   0.00000   1.000
    C144    C    0.15360   0.84640   0.00000   1.000
    C145    C    0.15360   0.15360   0.00000   1.000
    C146    C    0.00000   0.84640   0.15360   1.000
    C147    C    0.00000   0.84640   0.84640   1.000
    C148    C    0.00000   0.15360   0.84640   1.000
    C149    C    0.00000   0.15360   0.15360   1.000
    C150    C    0.15360   0.50000   0.34640   1.000
    C151    C    0.84640   0.50000   0.34640   1.000
    C152    C    0.84640   0.50000   0.65360   1.000
    C153    C    0.15360   0.50000   0.65360   1.000
    C154    C    0.84640   0.65360   0.50000   1.000
    C155    C    0.84640   0.34640   0.50000   1.000
    C156    C    0.15360   0.34640   0.50000   1.000
    C157    C    0.15360   0.65360   0.50000   1.000
    C158    C    0.00000   0.34640   0.65360   1.000
    C159    C    0.00000   0.34640   0.34640   1.000
    C160    C    0.00000   0.65360   0.34640   1.000
    C161    C    0.00000   0.65360   0.65360   1.000
    C162    C    0.65360   0.00000   0.34640   1.000
    C163    C    0.34640   0.00000   0.34640   1.000
    C164    C    0.34640   0.00000   0.65360   1.000
    C165    C    0.65360   0.00000   0.65360   1.000
    C166    C    0.34640   0.15360   0.50000   1.000
    C167    C    0.34640   0.84640   0.50000   1.000
    C168    C    0.65360   0.84640   0.50000   1.000
    C169    C    0.65360   0.15360   0.50000   1.000
    C170    C    0.50000   0.84640   0.65360   1.000
    C171    C    0.50000   0.84640   0.34640   1.000
    C172    C    0.50000   0.15360   0.34640   1.000
    C173    C    0.50000   0.15360   0.65360   1.000
    C174    C    0.65360   0.50000   0.84640   1.000
    C175    C    0.34640   0.50000   0.84640   1.000
    C176    C    0.34640   0.50000   0.15360   1.000
    C177    C    0.65360   0.50000   0.15360   1.000
    C178    C    0.34640   0.65360   0.00000   1.000
    C179    C    0.34640   0.34640   0.00000   1.000
    C180    C    0.65360   0.34640   0.00000   1.000
    C181    C    0.65360   0.65360   0.00000   1.000
    C182    C    0.50000   0.34640   0.15360   1.000
    C183    C    0.50000   0.65360   0.15360   1.000
    C184    C    0.00000   0.18440   0.26750   1.000
    C185    C    0.00000   0.18440   0.73250   1.000
    C186    C    0.00000   0.81560   0.73250   1.000
    C187    C    0.00000   0.81560   0.26750   1.000
    C188    C    0.79500   0.00000   0.20500   1.000
    C189    C    0.79500   0.00000   0.79500   1.000
    C190    C    0.20500   0.00000   0.79500   1.000
    C191    C    0.20500   0.20500   0.00000   1.000
    C192    C    0.20500   0.79500   0.00000   1.000
    C193    C    0.79500   0.79500   0.00000   1.000
    C194    C    0.79500   0.20500   0.00000   1.000
    C195    C    0.00000   0.20500   0.20500   1.000
    C196    C    0.00000   0.20500   0.79500   1.000
    C197    C    0.00000   0.79500   0.79500   1.000
    C198    C    0.00000   0.79500   0.20500   1.000
    C199    C    0.20500   0.50000   0.70500   1.000
    C200    C    0.79500   0.50000   0.70500   1.000
    C201    C    0.79500   0.50000   0.29500   1.000
    C202    C    0.79500   0.29500   0.50000   1.000
    C203    C    0.79500   0.70500   0.50000   1.000
    C204    C    0.00000   0.70500   0.70500   1.000
    C205    C    0.00000   0.70500   0.29500   1.000
    C206    C    0.00000   0.29500   0.29500   1.000
    C207    C    0.00000   0.29500   0.70500   1.000
    C208    C    0.70500   0.00000   0.70500   1.000
    C209    C    0.29500   0.00000   0.70500   1.000
    C210    C    0.29500   0.00000   0.29500   1.000
    C211    C    0.70500   0.00000   0.29500   1.000
    C212    C    0.70500   0.20500   0.50000   1.000
    C213    C    0.70500   0.79500   0.50000   1.000
    C214    C    0.29500   0.79500   0.50000   1.000
    C215    C    0.29500   0.20500   0.50000   1.000
    C216    C    0.50000   0.20500   0.70500   1.000
    C217    C    0.50000   0.20500   0.29500   1.000
    C218    C    0.50000   0.79500   0.29500   1.000
    C219    C    0.50000   0.79500   0.70500   1.000
    C220    C    0.70500   0.50000   0.20500   1.000
    C221    C    0.29500   0.50000   0.20500   1.000
    C222    C    0.29500   0.50000   0.79500   1.000
    C223    C    0.70500   0.50000   0.79500   1.000
    C224    C    0.70500   0.70500   0.00000   1.000
    C225    C    0.70500   0.29500   0.00000   1.000
    C226    C    0.29500   0.29500   0.00000   1.000
    C227    C    0.29500   0.70500   0.00000   1.000
    C228    C    0.50000   0.70500   0.20500   1.000
    C229    C    0.50000   0.70500   0.79500   1.000
    C230    C    0.50000   0.29500   0.79500   1.000
    C231    C    0.50000   0.29500   0.20500   1.000
    C232    C    0.73250   0.00000   0.18440   1.000
    C233    C    0.73250   0.00000   0.81560   1.000
    C234    C    0.26750   0.00000   0.81560   1.000
    C235    C    0.18440   0.26750   0.00000   1.000
    C236    C    0.18440   0.73250   0.00000   1.000
    C237    C    0.81560   0.73250   0.00000   1.000
    C238    C    0.81560   0.26750   0.00000   1.000
    C239    C    0.00000   0.26750   0.18440   1.000
    C240    C    0.26750   0.18440   0.00000   1.000
    C241    C    0.73250   0.18440   0.00000   1.000
    C242    C    0.73250   0.81560   0.00000   1.000
    C243    C    0.26750   0.81560   0.00000   1.000
    C244    C    0.18440   0.00000   0.73250   1.000
    C245    C    0.18440   0.00000   0.26750   1.000
    C246    C    0.81560   0.00000   0.26750   1.000
    C247    C    0.81560   0.00000   0.73250   1.000
    C248    C    0.26750   0.50000   0.68440   1.000
    C249    C    0.73250   0.50000   0.68440   1.000
    C250    C    0.73250   0.50000   0.31560   1.000
    C251    C    0.26750   0.50000   0.31560   1.000
    C252    C    0.18440   0.76750   0.50000   1.000
    C253    C    0.18440   0.23250   0.50000   1.000
    C254    C    0.81560   0.23250   0.50000   1.000
    C255    C    0.81560   0.76750   0.50000   1.000
    C256    C    0.00000   0.68440   0.76750   1.000
    C257    C    0.00000   0.68440   0.23250   1.000
    C258    C    0.00000   0.31560   0.23250   1.000
    C259    C    0.00000   0.31560   0.76750   1.000
    C260    C    0.00000   0.76750   0.31560   1.000
    C261    C    0.00000   0.23250   0.31560   1.000
    C262    C    0.00000   0.23250   0.68440   1.000
    C263    C    0.00000   0.76750   0.68440   1.000
    C264    C    0.26750   0.68440   0.50000   1.000
    C265    C    0.73250   0.68440   0.50000   1.000
    C266    C    0.73250   0.31560   0.50000   1.000
    C267    C    0.26750   0.31560   0.50000   1.000
    C268    C    0.18440   0.50000   0.23250   1.000
    C269    C    0.18440   0.50000   0.76750   1.000
    C270    C    0.81560   0.50000   0.76750   1.000
    C271    C    0.81560   0.50000   0.23250   1.000
    C272    C    0.76750   0.00000   0.68440   1.000
    C273    C    0.23250   0.00000   0.68440   1.000
    C274    C    0.23250   0.00000   0.31560   1.000
    C275    C    0.76750   0.00000   0.31560   1.000
    C276    C    0.68440   0.26750   0.50000   1.000
    C277    C    0.68440   0.73250   0.50000   1.000
    C278    C    0.31560   0.73250   0.50000   1.000
    C279    C    0.31560   0.26750   0.50000   1.000
    C280    C    0.50000   0.18440   0.76750   1.000
    C281    C    0.50000   0.18440   0.23250   1.000
    C282    C    0.50000   0.81560   0.23250   1.000
    C283    C    0.50000   0.81560   0.76750   1.000
    C284    C    0.50000   0.26750   0.31560   1.000
    C285    C    0.50000   0.73250   0.31560   1.000
    C286    C    0.50000   0.73250   0.68440   1.000
    C287    C    0.50000   0.26750   0.68440   1.000
    C288    C    0.76750   0.18440   0.50000   1.000
    C289    C    0.23250   0.18440   0.50000   1.000
    C290    C    0.23250   0.81560   0.50000   1.000
    C291    C    0.76750   0.81560   0.50000   1.000
    C292    C    0.68440   0.00000   0.23250   1.000
    C293    C    0.68440   0.00000   0.76750   1.000
    C294    C    0.31560   0.00000   0.76750   1.000
    C295    C    0.31560   0.00000   0.23250   1.000
    C296    C    0.76750   0.50000   0.18440   1.000
    C297    C    0.23250   0.50000   0.18440   1.000
    C298    C    0.23250   0.50000   0.81560   1.000
    C299    C    0.76750   0.50000   0.81560   1.000
    C300    C    0.68440   0.76750   0.00000   1.000
    C301    C    0.68440   0.23250   0.00000   1.000
    C302    C    0.31560   0.23250   0.00000   1.000
    C303    C    0.31560   0.76750   0.00000   1.000
    C304    C    0.50000   0.68440   0.26750   1.000
    C305    C    0.50000   0.68440   0.73250   1.000
    C306    C    0.50000   0.31560   0.73250   1.000
    C307    C    0.50000   0.31560   0.26750   1.000
    C308    C    0.50000   0.76750   0.81560   1.000
    C309    C    0.50000   0.23250   0.81560   1.000
    C310    C    0.50000   0.23250   0.18440   1.000
    C311    C    0.50000   0.76750   0.18440   1.000
    C312    C    0.76750   0.68440   0.00000   1.000
    C313    C    0.23250   0.68440   0.00000   1.000
    C314    C    0.23250   0.31560   0.00000   1.000
    C315    C    0.76750   0.31560   0.00000   1.000
    C316    C    0.68440   0.50000   0.73250   1.000
    C317    C    0.68440   0.50000   0.26750   1.000
    C318    C    0.31560   0.50000   0.26750   1.000
    C319    C    0.31560   0.50000   0.73250   1.000
loop_
    _geom_bond_atom_site_label_1
    _geom_bond_atom_site_label_2
    _geom_bond_distance
    _geom_bond_site_symmetry_2
    _ccdc_geom_bond_type
    C2     C190      1.50472      .   S
    C2     O31       1.25634      .   S
    C2     O14       1.25634      .   S
    O90    C180      1.25634      .   S
    O30    C144      1.25634      .   S
    O29    C143      1.25634      .   S
    O28    C142      1.25634      .   S
    O27    C145      1.25634      .   S
    O92    C178      1.25634      .   S
    C144   O16       1.25634      .   S
    C144   C192      1.50472      .   S
    C145   O15       1.25634      .   S
    C145   C191      1.50472      .   S
    O91    C179      1.25634      .   S
    C142   C194      1.50472      .   S
    C142   O18       1.25634      .   S
    C194   C238      1.36224      .   S
    C194   C241      1.36224      .   S
    O17    C143      1.25634      .   S
    C143   C193      1.50472      .   S
    O101   C181      1.25634      .   S
    C224   C181      1.50472      .   S
    C224   C300      1.36224      .   S
    C224   C312      1.36224      .   S
    C225   C180      1.50472      .   S
    C225   C315      1.36224      .   S
    C225   C301      1.36224      .   S
    C226   C179      1.50472      .   S
    C226   C314      1.36224      .   S
    C226   C302      1.36224      .   S
    C227   C313      1.36224      .   S
    C227   C178      1.50472      .   S
    C227   C303      1.36224      .   S
    C235   C314      1.40812      .   S
    C235   C191      1.36224      .   S
    C236   C313      1.40812      .   S
    C236   C192      1.36224      .   S
    C237   C312      1.40812      .   S
    C237   C193      1.36224      .   S
    C238   C315      1.40812      .   S
    O104   C180      1.25634      .   S
    O103   C179      1.25634      .   S
    O102   C178      1.25634      .   S
    C243   C303      1.40812      .   S
    C243   C192      1.36224      .   S
    C181   O89       1.25634      .   S
    C242   C300      1.40812      .   S
    C242   C193      1.36224      .   S
    C241   C301      1.40812      .   S
    C302   C240      1.40812      .   S
    C240   C191      1.36224      .   S
    O99    C182      1.25634      .   S
    O100   C183      1.25634      .   S
    O25    C146      1.25634      .   S
    O85    C177      1.25634      .   S
    O86    C176      1.25634      .   S
    O26    C149      1.25634      .   S
    O12    C140      1.25634      .   S
    O0     C141      1.25634      .   S
    C140   O33       1.25634      .   S
    C140   C188      1.50472      .   S
    C141   O32       1.25634      .   S
    C141   C3        1.50472      .   S
    C176   O107      1.25634      .   S
    C176   C221      1.50472      .   S
    C177   O106      1.25634      .   S
    C177   C220      1.50472      .   S
    C182   O96       1.25634      .   S
    C182   C231      1.50472      .   S
    C146   O22       1.25634      .   S
    C146   C198      1.50472      .   S
    C149   O19       1.25634      .   S
    C149   C195      1.50472      .   S
    C183   O93       1.25634      .   S
    C183   C228      1.50472      .   S
    C310   C231      1.36224      .   S
    C310   C281      1.40812      .   S
    C7     C198      1.36224      .   S
    C7     C257      1.40812      .   S
    C239   C195      1.36224      .   S
    C239   C258      1.40812      .   S
    C311   C228      1.36224      .   S
    C311   C282      1.40812      .   S
    C297   C221      1.36224      .   S
    C297   C268      1.40812      .   S
    C232   C188      1.36224      .   S
    C232   C292      1.40812      .   S
    C296   C220      1.36224      .   S
    C296   C271      1.40812      .   S
    C4     C3        1.36224      .   S
    C4     C295      1.40812      .   S
    C198   C187      1.36224      .   S
    C195   C184      1.36224      .   S
    C3     C245      1.36224      .   S
    C231   C307      1.36224      .   S
    C228   C304      1.36224      .   S
    C188   C246      1.36224      .   S
    C220   C317      1.36224      .   S
    C221   C318      1.36224      .   S
    C292   C211      1.36224      .   S
    C258   C206      1.36224      .   S
    C295   C210      1.36224      .   S
    C257   C205      1.36224      .   S
    C281   C217      1.36224      .   S
    C282   C218      1.36224      .   S
    C271   C201      1.36224      .   S
    C268   C136      1.36224      .   S
    C187   C260      1.40812      .   S
    C246   C275      1.40812      .   S
    C245   C274      1.40812      .   S
    C184   C261      1.40812      .   S
    C318   C251      1.40812      .   S
    C307   C284      1.40812      .   S
    C304   C285      1.40812      .   S
    C317   C250      1.40812      .   S
    C201   C250      1.36224      .   S
    C201   C151      1.50472      .   S
    C218   C285      1.36224      .   S
    C218   C171      1.50472      .   S
    C217   C284      1.36224      .   S
    C217   C172      1.50472      .   S
    C136   C251      1.36224      .   S
    C136   C150      1.50472      .   S
    C211   C275      1.36224      .   S
    C211   C162      1.50472      .   S
    C205   C260      1.36224      .   S
    C205   C160      1.50472      .   S
    C210   C274      1.36224      .   S
    C210   C163      1.50472      .   S
    C206   C261      1.36224      .   S
    C206   C159      1.50472      .   S
    O68    C172      1.25634      .   S
    O58    C151      1.25634      .   S
    O79    C162      1.25634      .   S
    O45    C159      1.25634      .   S
    O44    C160      1.25634      .   S
    O55    C150      1.25634      .   S
    O69    C171      1.25634      .   S
    O82    C163      1.25634      .   S
    C150   O38       1.25634      .   S
    C172   O71       1.25634      .   S
    C159   O48       1.25634      .   S
    C160   O47       1.25634      .   S
    C151   O37       1.25634      .   S
    C162   O62       1.25634      .   S
    C171   O72       1.25634      .   S
    C163   O61       1.25634      .   S
    C252   C290      1.40812      .   S
    C252   C137      1.36224      .   S
    C253   C289      1.40812      .   S
    C253   C138      1.36224      .   S
    C254   C288      1.40812      .   S
    C254   C202      1.36224      .   S
    C255   C291      1.40812      .   S
    C255   C203      1.36224      .   S
    C264   C278      1.40812      .   S
    C264   C137      1.36224      .   S
    C265   C277      1.40812      .   S
    C265   C203      1.36224      .   S
    C156   C138      1.50472      .   S
    C156   O40       1.25634      .   S
    C156   O54       1.25634      .   S
    C278   C214      1.36224      .   S
    C288   C212      1.36224      .   S
    C289   C215      1.36224      .   S
    C215   C279      1.36224      .   S
    C215   C166      1.50472      .   S
    C214   C290      1.36224      .   S
    C214   C167      1.50472      .   S
    C213   C291      1.36224      .   S
    C213   C277      1.36224      .   S
    C213   C168      1.50472      .   S
    C279   C267      1.40812      .   S
    C137   C157      1.50472      .   S
    C212   C276      1.36224      .   S
    C212   C169      1.50472      .   S
    C276   C266      1.40812      .   S
    C267   C138      1.36224      .   S
    C203   C154      1.50472      .   S
    C266   C202      1.36224      .   S
    C202   C155      1.50472      .   S
    O64    C168      1.25634      .   S
    O39    C157      1.25634      .   S
    O41    C155      1.25634      .   S
    O42    C154      1.25634      .   S
    C154   O52       1.25634      .   S
    O51    C157      1.25634      .   S
    C155   O53       1.25634      .   S
    O77    C167      1.25634      .   S
    O63    C169      1.25634      .   S
    O65    C167      1.25634      .   S
    O66    C166      1.25634      .   S
    C169   O75       1.25634      .   S
    C168   O78       1.25634      .   S
    C166   O76       1.25634      .   S
    O49    C158      1.25634      .   S
    O60    C164      1.25634      .   S
    O59    C165      1.25634      .   S
    O50    C161      1.25634      .   S
    O74    C173      1.25634      .   S
    O73    C170      1.25634      .   S
    O36    C152      1.25634      .   S
    O35    C153      1.25634      .   S
    C152   O57       1.25634      .   S
    C152   C200      1.50472      .   S
    C170   O70       1.25634      .   S
    C170   C219      1.50472      .   S
    C173   O67       1.25634      .   S
    C173   C216      1.50472      .   S
    C153   O56       1.25634      .   S
    C153   C199      1.50472      .   S
    C164   O81       1.25634      .   S
    C164   C209      1.50472      .   S
    C161   O43       1.25634      .   S
    C161   C204      1.50472      .   S
    C158   O46       1.25634      .   S
    C158   C207      1.50472      .   S
    C165   O80       1.25634      .   S
    C165   C208      1.50472      .   S
    C263   C204      1.36224      .   S
    C263   C186      1.40812      .   S
    C248   C199      1.36224      .   S
    C248   C319      1.40812      .   S
    C262   C207      1.36224      .   S
    C262   C185      1.40812      .   S
    C249   C200      1.36224      .   S
    C249   C316      1.40812      .   S
    C272   C208      1.36224      .   S
    C272   C247      1.40812      .   S
    C273   C209      1.36224      .   S
    C273   C244      1.40812      .   S
    C286   C219      1.36224      .   S
    C286   C305      1.40812      .   S
    C287   C216      1.36224      .   S
    C287   C306      1.40812      .   S
    C199   C269      1.36224      .   S
    C219   C283      1.36224      .   S
    C200   C270      1.36224      .   S
    C204   C256      1.36224      .   S
    C207   C259      1.36224      .   S
    C208   C293      1.36224      .   S
    C209   C294      1.36224      .   S
    C216   C280      1.36224      .   S
    C306   C230      1.36224      .   S
    C305   C229      1.36224      .   S
    C247   C189      1.36224      .   S
    C316   C223      1.36224      .   S
    C319   C222      1.36224      .   S
    C244   C190      1.36224      .   S
    C185   C196      1.36224      .   S
    C186   C197      1.36224      .   S
    C256   C6        1.40812      .   S
    C259   C5        1.40812      .   S
    C293   C233      1.40812      .   S
    C283   C308      1.40812      .   S
    C294   C234      1.40812      .   S
    C280   C309      1.40812      .   S
    C270   C299      1.40812      .   S
    C269   C298      1.40812      .   S
    C222   C298      1.36224      .   S
    C222   C175      1.50472      .   S
    C223   C299      1.36224      .   S
    C223   C174      1.50472      .   S
    C229   C308      1.36224      .   S
    C229   C84       1.50472      .   S
    C230   C309      1.36224      .   S
    C230   C83       1.50472      .   S
    C189   C233      1.36224      .   S
    C189   C139      1.50472      .   S
    C190   C234      1.36224      .   S
    C197   C6        1.36224      .   S
    C197   C147      1.50472      .   S
    C196   C5        1.36224      .   S
    C196   C148      1.50472      .   S
    O21    C147      1.25634      .   S
    O20    C148      1.25634      .   S
    O34    C139      1.25634      .   S
    O95    C83       1.25634      .   S
    O94    C84       1.25634      .   S
    O108   C175      1.25634      .   S
    O105   C174      1.25634      .   S
    C139   O13       1.25634      .   S
    C147   O24       1.25634      .   S
    C148   O23       1.25634      .   S
    C83    O98       1.25634      .   S
    C174   O88       1.25634      .   S
    C175   O87       1.25634      .   S
    C84    O97       1.25634      .   S
