# CIF file generated by openbabel 2.4.90, see http://openbabel.sf.net
data_I
_chemical_name_common ''
_cell_length_a 20.7004
_cell_length_b 20.7004
_cell_length_c 20.7004
_cell_angle_alpha 90
_cell_angle_beta 90
_cell_angle_gamma 90
_space_group_name_H-M_alt 'P 1'
_space_group_name_Hall 'P 1'
loop_
    _symmetry_equiv_pos_as_xyz
    x,y,z
loop_
    _atom_site_label
    _atom_site_type_symbol
    _atom_site_fract_x
    _atom_site_fract_y
    _atom_site_fract_z
    _atom_site_occupancy
    Zr0     Zr   0.88011   0.00000   0.00000   1.000
    Zr1     Zr   0.00000   0.11989   0.00000   1.000
    Zr2     Zr   0.00000   0.88011   0.00000   1.000
    Zr3     Zr   0.00000   0.00000   0.11989   1.000
    Zr4     Zr   0.00000   0.00000   0.88011   1.000
    Zr5     Zr   0.11989   0.50000   0.50000   1.000
    Zr6     Zr   0.88011   0.50000   0.50000   1.000
    Zr7     Zr   0.00000   0.61989   0.50000   1.000
    Zr8     Zr   0.00000   0.38011   0.50000   1.000
    Zr9     Zr   0.00000   0.50000   0.61989   1.000
    Zr10    Zr   0.00000   0.50000   0.38011   1.000
    Zr11    Zr   0.61989   0.00000   0.50000   1.000
    Zr12    Zr   0.11989   0.00000   0.00000   1.000
    Zr13    Zr   0.38011   0.00000   0.50000   1.000
    Zr14    Zr   0.50000   0.11989   0.50000   1.000
    Zr15    Zr   0.50000   0.88011   0.50000   1.000
    Zr16    Zr   0.50000   0.00000   0.61989   1.000
    Zr17    Zr   0.50000   0.00000   0.38011   1.000
    Zr18    Zr   0.61989   0.50000   0.00000   1.000
    Zr19    Zr   0.38011   0.50000   0.00000   1.000
    Zr20    Zr   0.50000   0.61989   0.00000   1.000
    Zr21    Zr   0.50000   0.38011   0.00000   1.000
    Zr22    Zr   0.50000   0.50000   0.11989   1.000
    Zr23    Zr   0.50000   0.50000   0.88011   1.000
