# CIF file generated by openbabel 2.4.90, see http://openbabel.sf.net
data_I
_chemical_name_common ''
_cell_length_a 20.7004
_cell_length_b 20.7004
_cell_length_c 20.7004
_cell_angle_alpha 90
_cell_angle_beta 90
_cell_angle_gamma 90
_space_group_name_H-M_alt 'P 1'
_space_group_name_Hall 'P 1'
loop_
    _symmetry_equiv_pos_as_xyz
    x,y,z
loop_
    _atom_site_label
    _atom_site_type_symbol
    _atom_site_fract_x
    _atom_site_fract_y
    _atom_site_fract_z
    _atom_site_occupancy
    Zr0     Zr   0.11989   0.00000   0.00000   1.000
    Zr1     Zr   0.88011   0.00000   0.00000   1.000
    Zr2     Zr   0.00000   0.11989   0.00000   1.000
    Zr3     Zr   0.00000   0.88011   0.00000   1.000
    Zr4     Zr   0.00000   0.00000   0.11989   1.000
    Zr5     Zr   0.00000   0.00000   0.88011   1.000
    Zr6     Zr   0.11989   0.50000   0.50000   1.000
    Zr7     Zr   0.88011   0.50000   0.50000   1.000
    Zr8     Zr   0.00000   0.61989   0.50000   1.000
    Zr9     Zr   0.00000   0.38011   0.50000   1.000
    Zr10    Zr   0.00000   0.50000   0.61989   1.000
    Zr11    Zr   0.00000   0.50000   0.38011   1.000
    Zr12    Zr   0.61989   0.00000   0.50000   1.000
    Zr13    Zr   0.38011   0.00000   0.50000   1.000
    Zr14    Zr   0.50000   0.11989   0.50000   1.000
    Zr15    Zr   0.50000   0.88011   0.50000   1.000
    Zr16    Zr   0.50000   0.00000   0.61989   1.000
    Zr17    Zr   0.50000   0.00000   0.38011   1.000
    Zr18    Zr   0.61989   0.50000   0.00000   1.000
    Zr19    Zr   0.38011   0.50000   0.00000   1.000
    Zr20    Zr   0.50000   0.61989   0.00000   1.000
    Zr21    Zr   0.50000   0.38011   0.00000   1.000
    Zr22    Zr   0.50000   0.50000   0.11989   1.000
    Zr23    Zr   0.50000   0.50000   0.88011   1.000
    N24     N    0.75000   0.75000   0.00000   1.000
    O25     O    0.69759   0.64882   0.00000   1.000
    O26     O    0.85118   0.80241   0.00000   1.000
    O27     O    0.80241   0.85117   0.00000   1.000
    O28     O    0.64882   0.69759   0.00000   1.000
    N29     N    0.55610   0.05610   0.55610   1.000
    O30     O    0.54207   0.04208   0.57205   1.000
    O31     O    0.57205   0.04208   0.54207   1.000
    O32     O    0.54207   0.07205   0.54207   1.000
    N33     N    0.50000   0.25000   0.25000   1.000
    O34     O    0.50000   0.30241   0.14883   1.000
    O35     O    0.50000   0.19759   0.35118   1.000
    O36     O    0.50000   0.14882   0.30241   1.000
    O37     O    0.50000   0.35117   0.19759   1.000
    N38     N    0.25000   0.25000   0.00000   1.000
    O39     O    0.35117   0.30241   0.00000   1.000
    O40     O    0.30241   0.35117   0.00000   1.000
    O41     O    0.19759   0.14882   0.00000   1.000
    O42     O    0.14883   0.19759   0.00000   1.000
    N43     N    0.94390   0.44390   0.44390   1.000
    O44     O    0.95792   0.42795   0.45793   1.000
    O45     O    0.95792   0.45793   0.42795   1.000
    O46     O    0.92795   0.45792   0.45793   1.000
    N47     N    0.25000   0.50000   0.25000   1.000
    O48     O    0.19759   0.50000   0.35118   1.000
    O49     O    0.30241   0.50000   0.14883   1.000
    O50     O    0.35117   0.50000   0.19759   1.000
    O51     O    0.14882   0.50000   0.30241   1.000
    N52     N    0.44390   0.94390   0.55610   1.000
    O53     O    0.45792   0.95792   0.57205   1.000
    O54     O    0.42795   0.95792   0.54207   1.000
    O55     O    0.45792   0.92795   0.54207   1.000
    N56     N    0.25000   0.75000   0.00000   1.000
    O57     O    0.30241   0.64882   0.00000   1.000
    O58     O    0.19759   0.85117   0.00000   1.000
    O59     O    0.35117   0.69759   0.00000   1.000
    O60     O    0.14882   0.80241   0.00000   1.000
    N61     N    0.00000   0.25000   0.25000   1.000
    O62     O    0.00000   0.35117   0.30241   1.000
    O63     O    0.00000   0.30241   0.35118   1.000
    O64     O    0.00000   0.19759   0.14883   1.000
    O65     O    0.00000   0.14883   0.19759   1.000
    N66     N    0.25000   0.50000   0.75000   1.000
    O67     O    0.35117   0.50000   0.80241   1.000
    O68     O    0.14882   0.50000   0.69759   1.000
    O69     O    0.30241   0.50000   0.85118   1.000
    O70     O    0.19759   0.50000   0.64882   1.000
    N71     N    0.50000   0.25000   0.75000   1.000
    O72     O    0.50000   0.19759   0.64882   1.000
    O73     O    0.50000   0.14882   0.69759   1.000
    O74     O    0.50000   0.30241   0.85117   1.000
    O75     O    0.50000   0.35117   0.80241   1.000
    N76     N    0.50000   0.75000   0.75000   1.000
    O77     O    0.50000   0.80241   0.64882   1.000
    O78     O    0.50000   0.64883   0.80241   1.000
    O79     O    0.50000   0.69759   0.85117   1.000
    O80     O    0.50000   0.85118   0.69759   1.000
    N81     N    0.75000   0.00000   0.75000   1.000
    O82     O    0.69759   0.00000   0.64882   1.000
    O83     O    0.64883   0.00000   0.69759   1.000
    O84     O    0.80241   0.00000   0.85117   1.000
    O85     O    0.85118   0.00000   0.80241   1.000
    N86     N    0.75000   0.25000   0.00000   1.000
    O87     O    0.80241   0.14882   0.00000   1.000
    O88     O    0.69759   0.35117   0.00000   1.000
    O89     O    0.64882   0.30241   0.00000   1.000
    O90     O    0.85117   0.19759   0.00000   1.000
    N91     N    0.00000   0.75000   0.25000   1.000
    O92     O    0.00000   0.64882   0.30241   1.000
    O93     O    0.00000   0.69759   0.35117   1.000
    O94     O    0.00000   0.85117   0.19759   1.000
    O95     O    0.00000   0.80241   0.14882   1.000
    N96     N    0.75000   0.75000   0.50000   1.000
    O97     O    0.64883   0.80241   0.50000   1.000
    O98     O    0.80241   0.64882   0.50000   1.000
    O99     O    0.69759   0.85118   0.50000   1.000
    O100    O    0.85118   0.69759   0.50000   1.000
    N101    N    0.75000   0.50000   0.25000   1.000
    O102    O    0.69759   0.50000   0.14882   1.000
    O103    O    0.80241   0.50000   0.35117   1.000
    O104    O    0.85118   0.50000   0.30241   1.000
    O105    O    0.64882   0.50000   0.19759   1.000
    N106    N    0.00000   0.25000   0.75000   1.000
    O107    O    0.00000   0.35117   0.69759   1.000
    O108    O    0.00000   0.19759   0.85117   1.000
    O109    O    0.00000   0.14882   0.80241   1.000
    O110    O    0.00000   0.30241   0.64882   1.000
    N111    N    0.25000   0.25000   0.50000   1.000
    O112    O    0.35117   0.19759   0.50000   1.000
    O113    O    0.30241   0.14882   0.50000   1.000
    O114    O    0.14882   0.30241   0.50000   1.000
    O115    O    0.19759   0.35117   0.50000   1.000
    N116    N    0.25000   0.00000   0.25000   1.000
    O117    O    0.14882   0.00000   0.19759   1.000
    O118    O    0.35117   0.00000   0.30241   1.000
    O119    O    0.19759   0.00000   0.14883   1.000
    O120    O    0.30241   0.00000   0.35118   1.000
    N121    N    0.25000   0.75000   0.50000   1.000
    O122    O    0.35117   0.80241   0.50000   1.000
    O123    O    0.30241   0.85117   0.50000   1.000
    O124    O    0.14882   0.69759   0.50000   1.000
    O125    O    0.19759   0.64882   0.50000   1.000
    N126    N    0.25000   0.00000   0.75000   1.000
    O127    O    0.35117   0.00000   0.69759   1.000
    O128    O    0.30241   0.00000   0.64882   1.000
    O129    O    0.19759   0.00000   0.85117   1.000
    O130    O    0.14882   0.00000   0.80241   1.000
    N131    N    0.94390   0.05610   0.94390   1.000
    O132    O    0.95792   0.07205   0.95792   1.000
    O133    O    0.92795   0.04208   0.95792   1.000
    O134    O    0.95792   0.04208   0.92795   1.000
    N135    N    0.00000   0.75000   0.75000   1.000
    O136    O    0.00000   0.69759   0.64882   1.000
    O137    O    0.00000   0.64882   0.69759   1.000
    O138    O    0.00000   0.80241   0.85117   1.000
    O139    O    0.00000   0.85118   0.80241   1.000
    N140    N    0.50000   0.75000   0.25000   1.000
    O141    O    0.50000   0.80241   0.35117   1.000
    O142    O    0.50000   0.69759   0.14882   1.000
    O143    O    0.50000   0.85117   0.30241   1.000
    O144    O    0.50000   0.64882   0.19759   1.000
    N145    N    0.75000   0.00000   0.25000   1.000
    O146    O    0.69759   0.00000   0.35117   1.000
    O147    O    0.64882   0.00000   0.30241   1.000
    O148    O    0.85117   0.00000   0.19759   1.000
    O149    O    0.80241   0.00000   0.14882   1.000
    N150    N    0.75000   0.50000   0.75000   1.000
    O151    O    0.69759   0.50000   0.85117   1.000
    O152    O    0.85118   0.50000   0.69759   1.000
    O153    O    0.80241   0.50000   0.64882   1.000
    O154    O    0.64883   0.50000   0.80241   1.000
    N155    N    0.05610   0.05610   0.94390   1.000
    O156    O    0.04208   0.07205   0.95792   1.000
    O157    O    0.07205   0.04207   0.95792   1.000
    O158    O    0.04208   0.04207   0.92795   1.000
    N159    N    0.75000   0.25000   0.50000   1.000
    O160    O    0.69759   0.14882   0.50000   1.000
    O161    O    0.64882   0.19759   0.50000   1.000
    O162    O    0.80241   0.35117   0.50000   1.000
    O163    O    0.85117   0.30241   0.50000   1.000
    N164    N    0.44390   0.55610   0.05610   1.000
    O165    O    0.45792   0.54207   0.07205   1.000
    O166    O    0.45792   0.57205   0.04208   1.000
    O167    O    0.42795   0.54207   0.04208   1.000
    N168    N    0.05610   0.44390   0.44390   1.000
    O169    O    0.04208   0.45793   0.42795   1.000
    O170    O    0.07205   0.45792   0.45793   1.000
    O171    O    0.04208   0.42795   0.45793   1.000
    N172    N    0.94390   0.55610   0.44390   1.000
    O173    O    0.92795   0.54207   0.45793   1.000
    O174    O    0.95792   0.57205   0.45793   1.000
    O175    O    0.95792   0.54207   0.42795   1.000
    N176    N    0.94390   0.94390   0.05610   1.000
    O177    O    0.95792   0.95792   0.07205   1.000
    O178    O    0.95792   0.92795   0.04208   1.000
    O179    O    0.92795   0.95792   0.04208   1.000
    N180    N    0.05610   0.05610   0.05610   1.000
    O181    O    0.04207   0.04208   0.07205   1.000
    O182    O    0.04207   0.07205   0.04208   1.000
    O183    O    0.07205   0.04208   0.04208   1.000
    N184    N    0.94390   0.05610   0.05610   1.000
    O185    O    0.95792   0.04207   0.07205   1.000
    O186    O    0.92795   0.04207   0.04208   1.000
    O187    O    0.95792   0.07205   0.04208   1.000
    N188    N    0.55610   0.94390   0.44390   1.000
    O189    O    0.57205   0.95792   0.45793   1.000
    O190    O    0.54207   0.95792   0.42795   1.000
    O191    O    0.54207   0.92795   0.45793   1.000
    N192    N    0.44390   0.05610   0.44390   1.000
    O193    O    0.42795   0.04208   0.45793   1.000
    O194    O    0.45792   0.07205   0.45793   1.000
    O195    O    0.45793   0.04208   0.42795   1.000
    N196    N    0.55610   0.44390   0.05610   1.000
    O197    O    0.54207   0.45793   0.07205   1.000
    O198    O    0.54207   0.42795   0.04208   1.000
    O199    O    0.57205   0.45793   0.04208   1.000
    N200    N    0.94390   0.44390   0.55610   1.000
    O201    O    0.92795   0.45792   0.54207   1.000
    O202    O    0.95792   0.42795   0.54207   1.000
    O203    O    0.95792   0.45792   0.57205   1.000
    N204    N    0.05610   0.55610   0.55610   1.000
    O205    O    0.07205   0.54207   0.54207   1.000
    O206    O    0.04207   0.57205   0.54207   1.000
    O207    O    0.04207   0.54207   0.57205   1.000
    N208    N    0.05610   0.44390   0.55610   1.000
    O209    O    0.04208   0.45792   0.57205   1.000
    O210    O    0.07205   0.45792   0.54207   1.000
    O211    O    0.04208   0.42795   0.54207   1.000
    N212    N    0.55610   0.44390   0.94390   1.000
    O213    O    0.57205   0.45792   0.95792   1.000
    O214    O    0.54207   0.42795   0.95792   1.000
    O215    O    0.54207   0.45793   0.92795   1.000
    N216    N    0.94390   0.55610   0.55610   1.000
    O217    O    0.92795   0.54207   0.54207   1.000
    O218    O    0.95792   0.54207   0.57205   1.000
    O219    O    0.95792   0.57205   0.54207   1.000
    N220    N    0.55610   0.05610   0.44390   1.000
    O221    O    0.54207   0.04207   0.42795   1.000
    O222    O    0.57205   0.04208   0.45793   1.000
    O223    O    0.54207   0.07205   0.45793   1.000
    N224    N    0.55610   0.55610   0.94390   1.000
    O225    O    0.57205   0.54207   0.95792   1.000
    O226    O    0.54207   0.54207   0.92795   1.000
    O227    O    0.54207   0.57205   0.95792   1.000
    N228    N    0.44390   0.44390   0.94390   1.000
    O229    O    0.45792   0.42795   0.95792   1.000
    O230    O    0.42795   0.45792   0.95792   1.000
    O231    O    0.45792   0.45793   0.92795   1.000
    N232    N    0.55610   0.55610   0.05610   1.000
    O233    O    0.54207   0.54207   0.07205   1.000
    O234    O    0.54207   0.57205   0.04208   1.000
    O235    O    0.57205   0.54207   0.04208   1.000
    N236    N    0.44390   0.94390   0.44390   1.000
    O237    O    0.42795   0.95792   0.45793   1.000
    O238    O    0.45792   0.95792   0.42795   1.000
    O239    O    0.45792   0.92795   0.45793   1.000
    N240    N    0.44390   0.05610   0.55610   1.000
    O241    O    0.45792   0.04207   0.57205   1.000
    O242    O    0.42795   0.04207   0.54207   1.000
    O243    O    0.45792   0.07205   0.54207   1.000
    N244    N    0.55610   0.94390   0.55610   1.000
    O245    O    0.57205   0.95792   0.54207   1.000
    O246    O    0.54207   0.95792   0.57205   1.000
    O247    O    0.54207   0.92795   0.54207   1.000
    N248    N    0.05610   0.94390   0.05610   1.000
    O249    O    0.07205   0.95792   0.04208   1.000
    O250    O    0.04208   0.95792   0.07205   1.000
    O251    O    0.04208   0.92795   0.04208   1.000
    N252    N    0.94390   0.94390   0.94390   1.000
    O253    O    0.95792   0.95792   0.92795   1.000
    O254    O    0.95792   0.92795   0.95792   1.000
    O255    O    0.92795   0.95792   0.95792   1.000
    N256    N    0.05610   0.55610   0.44390   1.000
    O257    O    0.07205   0.54207   0.45793   1.000
    O258    O    0.04208   0.54207   0.42795   1.000
    O259    O    0.04208   0.57205   0.45793   1.000
    N260    N    0.44390   0.55610   0.94390   1.000
    O261    O    0.42795   0.54207   0.95792   1.000
    O262    O    0.45792   0.54207   0.92795   1.000
    O263    O    0.45792   0.57205   0.95792   1.000
    N264    N    0.44390   0.44390   0.05610   1.000
    O265    O    0.45792   0.45793   0.07205   1.000
    O266    O    0.42795   0.45793   0.04208   1.000
    O267    O    0.45793   0.42795   0.04208   1.000
    N268    N    0.05610   0.94390   0.94390   1.000
    O269    O    0.04208   0.95792   0.92795   1.000
    O270    O    0.07205   0.95792   0.95792   1.000
    O271    O    0.04208   0.92795   0.95792   1.000
loop_
    _geom_bond_atom_site_label_1
    _geom_bond_atom_site_label_2
    _geom_bond_distance
    _geom_bond_site_symmetry_2
    _ccdc_geom_bond_type
    N24    O25       2.35868      .   S
    Zr18   O25       3.47534      .   S
    N24    O26       2.35868      .   S
    Zr3    O26       3.47534  1_455   S
    N24    O27       2.35868      .   S
    Zr1    O27       3.47534  1_545   S
    N24    O28       2.35868      .   S
    Zr20   O28       3.47534      .   S
    N29    O30       0.52683      .   S
    Zr16   O30       1.58050      .   S
    N29    O31       0.52683      .   S
    Zr12   O31       1.58050      .   S
    N29    O32       0.52683      .   S
    Zr14   O32       1.58050      .   S
    N33    O34       2.35868      .   S
    Zr21   O34       3.47534      .   S
    N33    O35       2.35868      .   S
    Zr14   O35       3.47534      .   S
    N33    O36       2.35868      .   S
    Zr17   O36       3.47534      .   S
    N33    O37       2.35868      .   S
    Zr22   O37       3.47534      .   S
    N38    O39       2.35868      .   S
    Zr21   O39       3.47534      .   S
    N38    O40       2.35868      .   S
    Zr19   O40       3.47534      .   S
    N38    O41       2.35868      .   S
    Zr0    O41       3.47534      .   S
    N38    O42       2.35868      .   S
    Zr2    O42       3.47534      .   S
    N43    O44       0.52683      .   S
    Zr9    O44       1.58050  1_455   S
    N43    O45       0.52683      .   S
    Zr11   O45       1.58050  1_455   S
    N43    O46       0.52683      .   S
    Zr7    O46       1.58050      .   S
    N47    O48       2.35868      .   S
    Zr6    O48       3.47534      .   S
    N47    O49       2.35868      .   S
    Zr19   O49       3.47534      .   S
    N47    O50       2.35868      .   S
    Zr22   O50       3.47534      .   S
    N47    O51       2.35868      .   S
    Zr11   O51       3.47534      .   S
    N52    O53       0.52683      .   S
    Zr16   O53       1.58050  1_545   S
    N52    O54       0.52683      .   S
    Zr13   O54       1.58050  1_545   S
    N52    O55       0.52683      .   S
    Zr15   O55       1.58050      .   S
    N56    O57       2.35868      .   S
    Zr19   O57       3.47534      .   S
    N56    O58       2.35868      .   S
    Zr0    O58       3.47534  1_545   S
    N56    O59       2.35868      .   S
    Zr20   O59       3.47534      .   S
    N56    O60       2.35868      .   S
    Zr3    O60       3.47534      .   S
    N61    O62       2.35868      .   S
    Zr11   O62       3.47534      .   S
    N61    O63       2.35868      .   S
    Zr9    O63       3.47534      .   S
    N61    O64       2.35868      .   S
    Zr2    O64       3.47534      .   S
    N61    O65       2.35868      .   S
    Zr4    O65       3.47534      .   S
    N66    O67       2.35868      .   S
    Zr23   O67       3.47534      .   S
    N66    O68       2.35868      .   S
    Zr10   O68       3.47534      .   S
    N66    O69       2.35868      .   S
    Zr19   O69       3.47534  1_554   S
    N66    O70       2.35868      .   S
    Zr6    O70       3.47534      .   S
    N71    O72       2.35868      .   S
    Zr14   O72       3.47534      .   S
    N71    O73       2.35868      .   S
    Zr16   O73       3.47534      .   S
    N71    O74       2.35868      .   S
    Zr21   O74       3.47534  1_554   S
    N71    O75       2.35868      .   S
    Zr23   O75       3.47534      .   S
    N76    O77       2.35868      .   S
    Zr15   O77       3.47534      .   S
    N76    O78       2.35868      .   S
    Zr23   O78       3.47534      .   S
    N76    O79       2.35868      .   S
    Zr20   O79       3.47534  1_554   S
    N76    O80       2.35868      .   S
    Zr16   O80       3.47534  1_545   S
    N81    O82       2.35868      .   S
    Zr12   O82       3.47534      .   S
    N81    O83       2.35868      .   S
    Zr16   O83       3.47534      .   S
    N81    O84       2.35868      .   S
    Zr1    O84       3.47534  1_554   S
    N81    O85       2.35868      .   S
    Zr5    O85       3.47534  1_455   S
    N86    O87       2.35868      .   S
    Zr1    O87       3.47534      .   S
    N86    O88       2.35868      .   S
    Zr18   O88       3.47534      .   S
    N86    O89       2.35868      .   S
    Zr21   O89       3.47534      .   S
    N86    O90       2.35868      .   S
    Zr2    O90       3.47534  1_455   S
    N91    O92       2.35868      .   S
    Zr11   O92       3.47534      .   S
    N91    O93       2.35868      .   S
    Zr8    O93       3.47534      .   S
    N91    O94       2.35868      .   S
    Zr4    O94       3.47534  1_545   S
    N91    O95       2.35868      .   S
    Zr3    O95       3.47534      .   S
    N96    O97       2.35868      .   S
    Zr15   O97       3.47534      .   S
    N96    O98       2.35868      .   S
    Zr7    O98       3.47534      .   S
    N96    O99       2.35868      .   S
    Zr12   O99       3.47534  1_545   S
    N96    O100      2.35868      .   S
    Zr8    O100      3.47534  1_455   S
    N101   O102      2.35868      .   S
    Zr18   O102      3.47534      .   S
    N101   O103      2.35868      .   S
    Zr7    O103      3.47534      .   S
    N101   O104      2.35868      .   S
    Zr11   O104      3.47534  1_455   S
    N101   O105      2.35868      .   S
    Zr22   O105      3.47534      .   S
    N106   O107      2.35868      .   S
    Zr10   O107      3.47534      .   S
    N106   O108      2.35868      .   S
    Zr2    O108      3.47534  1_554   S
    N106   O109      2.35868      .   S
    Zr5    O109      3.47534      .   S
    N106   O110      2.35868      .   S
    Zr9    O110      3.47534      .   S
    N111   O112      2.35868      .   S
    Zr14   O112      3.47534      .   S
    N111   O113      2.35868      .   S
    Zr13   O113      3.47534      .   S
    N111   O114      2.35868      .   S
    Zr9    O114      3.47534      .   S
    N111   O115      2.35868      .   S
    Zr6    O115      3.47534      .   S
    N116   O117      2.35868      .   S
    Zr4    O117      3.47534      .   S
    N116   O118      2.35868      .   S
    Zr17   O118      3.47534      .   S
    N116   O119      2.35868      .   S
    Zr0    O119      3.47534      .   S
    N116   O120      2.35868      .   S
    Zr13   O120      3.47534      .   S
    N121   O122      2.35868      .   S
    Zr15   O122      3.47534      .   S
    N121   O123      2.35868      .   S
    Zr13   O123      3.47534  1_545   S
    N121   O124      2.35868      .   S
    Zr8    O124      3.47534      .   S
    N121   O125      2.35868      .   S
    Zr6    O125      3.47534      .   S
    N126   O127      2.35868      .   S
    Zr16   O127      3.47534      .   S
    N126   O128      2.35868      .   S
    Zr13   O128      3.47534      .   S
    N126   O129      2.35868      .   S
    Zr0    O129      3.47534  1_554   S
    N126   O130      2.35868      .   S
    Zr5    O130      3.47534      .   S
    N131   O132      0.52683      .   S
    Zr2    O132      1.58050  1_454   S
    N131   O133      0.52683      .   S
    Zr1    O133      1.58050  1_554   S
    N131   O134      0.52683      .   S
    Zr5    O134      1.58050  1_455   S
    N135   O136      2.35868      .   S
    Zr8    O136      3.47534      .   S
    N135   O137      2.35868      .   S
    Zr10   O137      3.47534      .   S
    N135   O138      2.35868      .   S
    Zr3    O138      3.47534  1_554   S
    N135   O139      2.35868      .   S
    Zr5    O139      3.47534  1_545   S
    N140   O141      2.35868      .   S
    Zr15   O141      3.47534      .   S
    N140   O142      2.35868      .   S
    Zr20   O142      3.47534      .   S
    N140   O143      2.35868      .   S
    Zr17   O143      3.47534  1_545   S
    N140   O144      2.35868      .   S
    Zr22   O144      3.47534      .   S
    N145   O146      2.35868      .   S
    Zr12   O146      3.47534      .   S
    N145   O147      2.35868      .   S
    Zr17   O147      3.47534      .   S
    N145   O148      2.35868      .   S
    Zr4    O148      3.47534  1_455   S
    N145   O149      2.35868      .   S
    Zr1    O149      3.47534      .   S
    N150   O151      2.35868      .   S
    Zr18   O151      3.47534  1_554   S
    N150   O152      2.35868      .   S
    Zr10   O152      3.47534  1_455   S
    N150   O153      2.35868      .   S
    Zr7    O153      3.47534      .   S
    N150   O154      2.35868      .   S
    Zr23   O154      3.47534      .   S
    N155   O156      0.52683      .   S
    Zr2    O156      1.58050  1_554   S
    N155   O157      0.52683      .   S
    Zr0    O157      1.58050  1_554   S
    N155   O158      0.52683      .   S
    Zr5    O158      1.58050      .   S
    N159   O160      2.35868      .   S
    Zr12   O160      3.47534      .   S
    N159   O161      2.35868      .   S
    Zr14   O161      3.47534      .   S
    N159   O162      2.35868      .   S
    Zr7    O162      3.47534      .   S
    N159   O163      2.35868      .   S
    Zr9    O163      3.47534  1_455   S
    N164   O165      0.52683      .   S
    Zr22   O165      1.58050      .   S
    N164   O166      0.52683      .   S
    Zr20   O166      1.58050      .   S
    N164   O167      0.52683      .   S
    Zr19   O167      1.58050      .   S
    N168   O169      0.52683      .   S
    Zr11   O169      1.58050      .   S
    N168   O170      0.52683      .   S
    Zr6    O170      1.58050      .   S
    N168   O171      0.52683      .   S
    Zr9    O171      1.58050      .   S
    N172   O173      0.52683      .   S
    Zr7    O173      1.58050      .   S
    N172   O174      0.52683      .   S
    Zr8    O174      1.58050  1_455   S
    N172   O175      0.52683      .   S
    Zr11   O175      1.58050  1_455   S
    N176   O177      0.52683      .   S
    Zr4    O177      1.58050  1_445   S
    N176   O178      0.52683      .   S
    Zr3    O178      1.58050  1_455   S
    N176   O179      0.52683      .   S
    Zr1    O179      1.58050  1_545   S
    N180   O181      0.52683      .   S
    Zr4    O181      1.58050      .   S
    N180   O182      0.52683      .   S
    Zr2    O182      1.58050      .   S
    N180   O183      0.52683      .   S
    Zr0    O183      1.58050      .   S
    N184   O185      0.52683      .   S
    Zr4    O185      1.58050  1_455   S
    N184   O186      0.52683      .   S
    Zr1    O186      1.58050      .   S
    N184   O187      0.52683      .   S
    Zr2    O187      1.58050  1_455   S
    N188   O189      0.52683      .   S
    Zr12   O189      1.58050  1_545   S
    N188   O190      0.52683      .   S
    Zr17   O190      1.58050  1_545   S
    N188   O191      0.52683      .   S
    Zr15   O191      1.58050      .   S
    N192   O193      0.52683      .   S
    Zr13   O193      1.58050      .   S
    N192   O194      0.52683      .   S
    Zr14   O194      1.58050      .   S
    N192   O195      0.52683      .   S
    Zr17   O195      1.58050      .   S
    N196   O197      0.52683      .   S
    Zr22   O197      1.58050      .   S
    N196   O198      0.52683      .   S
    Zr21   O198      1.58050      .   S
    N196   O199      0.52683      .   S
    Zr18   O199      1.58050      .   S
    N200   O201      0.52683      .   S
    Zr7    O201      1.58050      .   S
    N200   O202      0.52683      .   S
    Zr9    O202      1.58050  1_455   S
    N200   O203      0.52683      .   S
    Zr10   O203      1.58050  1_455   S
    N204   O205      0.52683      .   S
    Zr6    O205      1.58050      .   S
    N204   O206      0.52683      .   S
    Zr8    O206      1.58050      .   S
    N204   O207      0.52683      .   S
    Zr10   O207      1.58050      .   S
    N208   O209      0.52683      .   S
    Zr10   O209      1.58050      .   S
    N208   O210      0.52683      .   S
    Zr6    O210      1.58050      .   S
    N208   O211      0.52683      .   S
    Zr9    O211      1.58050      .   S
    N212   O213      0.52683      .   S
    Zr18   O213      1.58050  1_554   S
    N212   O214      0.52683      .   S
    Zr21   O214      1.58050  1_554   S
    N212   O215      0.52683      .   S
    Zr23   O215      1.58050      .   S
    N216   O217      0.52683      .   S
    Zr7    O217      1.58050      .   S
    N216   O218      0.52683      .   S
    Zr10   O218      1.58050  1_455   S
    N216   O219      0.52683      .   S
    Zr8    O219      1.58050  1_455   S
    N220   O221      0.52683      .   S
    Zr17   O221      1.58050      .   S
    N220   O222      0.52683      .   S
    Zr12   O222      1.58050      .   S
    N220   O223      0.52683      .   S
    Zr14   O223      1.58050      .   S
    N224   O225      0.52683      .   S
    Zr18   O225      1.58050  1_554   S
    N224   O226      0.52683      .   S
    Zr23   O226      1.58050      .   S
    N224   O227      0.52683      .   S
    Zr20   O227      1.58050  1_554   S
    N228   O229      0.52683      .   S
    Zr21   O229      1.58050  1_554   S
    N228   O230      0.52683      .   S
    Zr19   O230      1.58050  1_554   S
    N228   O231      0.52683      .   S
    Zr23   O231      1.58050      .   S
    N232   O233      0.52683      .   S
    Zr22   O233      1.58050      .   S
    N232   O234      0.52683      .   S
    Zr20   O234      1.58050      .   S
    N232   O235      0.52683      .   S
    Zr18   O235      1.58050      .   S
    N236   O237      0.52683      .   S
    Zr13   O237      1.58050  1_545   S
    N236   O238      0.52683      .   S
    Zr17   O238      1.58050  1_545   S
    N236   O239      0.52683      .   S
    Zr15   O239      1.58050      .   S
    N240   O241      0.52683      .   S
    Zr16   O241      1.58050      .   S
    N240   O242      0.52683      .   S
    Zr13   O242      1.58050      .   S
    N240   O243      0.52683      .   S
    Zr14   O243      1.58050      .   S
    N244   O245      0.52683      .   S
    Zr12   O245      1.58050  1_545   S
    N244   O246      0.52683      .   S
    Zr16   O246      1.58050  1_545   S
    N244   O247      0.52683      .   S
    Zr15   O247      1.58050      .   S
    N248   O249      0.52683      .   S
    Zr0    O249      1.58050  1_545   S
    N248   O250      0.52683      .   S
    Zr4    O250      1.58050  1_545   S
    N248   O251      0.52683      .   S
    Zr3    O251      1.58050      .   S
    N252   O253      0.52683      .   S
    Zr5    O253      1.58050  1_445   S
    N252   O254      0.52683      .   S
    Zr3    O254      1.58050  1_454   S
    N252   O255      0.52683      .   S
    Zr1    O255      1.58050  1_544   S
    N256   O257      0.52683      .   S
    Zr6    O257      1.58050      .   S
    N256   O258      0.52683      .   S
    Zr11   O258      1.58050      .   S
    N256   O259      0.52683      .   S
    Zr8    O259      1.58050      .   S
    N260   O261      0.52683      .   S
    Zr19   O261      1.58050  1_554   S
    N260   O262      0.52683      .   S
    Zr23   O262      1.58050      .   S
    N260   O263      0.52683      .   S
    Zr20   O263      1.58050  1_554   S
    N264   O265      0.52683      .   S
    Zr22   O265      1.58050      .   S
    N264   O266      0.52683      .   S
    Zr19   O266      1.58050      .   S
    N264   O267      0.52683      .   S
    Zr21   O267      1.58050      .   S
    N268   O269      0.52683      .   S
    Zr5    O269      1.58050  1_545   S
    N268   O270      0.52683      .   S
    Zr0    O270      1.58050  1_544   S
    N268   O271      0.52683      .   S
    Zr3    O271      1.58050  1_554   S
