# CIF file generated by openbabel 2.4.90, see http://openbabel.sf.net
data_I
_chemical_name_common ''
_cell_length_a 11.184
_cell_length_b 11.184
_cell_length_c 14.591
_cell_angle_alpha 90
_cell_angle_beta 90
_cell_angle_gamma 120
_space_group_name_H-M_alt 'P 1'
_space_group_name_Hall 'P 1'
loop_
    _symmetry_equiv_pos_as_xyz
    x,y,z
loop_
    _atom_site_label
    _atom_site_type_symbol
    _atom_site_fract_x
    _atom_site_fract_y
    _atom_site_fract_z
    _atom_site_occupancy
    O0      O    0.90900   0.17300   0.25000   1.000
    C1      C    0.06200   0.27100   0.25000   1.000
    O2      O    0.82700   0.73600   0.25000   1.000
    O3      O    0.26400   0.09100   0.25000   1.000
    C4      C    0.72900   0.79100   0.25000   1.000
    C5      C    0.20900   0.93800   0.25000   1.000
    O6      O    0.17300   0.90900   0.75000   1.000
    O7      O    0.73600   0.82700   0.75000   1.000
    O8      O    0.09100   0.26400   0.75000   1.000
    C9      C    0.27100   0.06200   0.75000   1.000
    C10     C    0.79100   0.72900   0.75000   1.000
    C11     C    0.93800   0.20900   0.75000   1.000
loop_
    _geom_bond_atom_site_label_1
    _geom_bond_atom_site_label_2
    _geom_bond_distance
    _geom_bond_site_symmetry_2
    _ccdc_geom_bond_type
    O2     C4        1.50128      .   S
    O3     C5        1.50128  1_545   S
    C1     O0        1.50128  1_455   S
    C11    O8        1.50128  1_655   S
    C10    O7        1.50128      .   S
    C9     O6        1.50128  1_545   S
