# CIF file generated by openbabel 2.4.90, see http://openbabel.sf.net
data_I
_chemical_name_common ''
_cell_length_a 11.184
_cell_length_b 11.184
_cell_length_c 14.591
_cell_angle_alpha 90
_cell_angle_beta 90
_cell_angle_gamma 120
_space_group_name_H-M_alt 'P 1'
_space_group_name_Hall 'P 1'
loop_
    _symmetry_equiv_pos_as_xyz
    x,y,z
loop_
    _atom_site_label
    _atom_site_type_symbol
    _atom_site_fract_x
    _atom_site_fract_y
    _atom_site_fract_z
    _atom_site_occupancy
    O0      O    0.05900   0.05900   0.00000   1.000
    C1      C    0.19200   0.19200   0.00000   1.000
    C2      C    0.13000   0.13400   0.10500   1.000
    O3      O    0.24800   0.09500   0.89500   1.000
    O4      O    0.15300   0.90500   0.10500   1.000
    O5      O    0.84700   0.75200   0.89500   1.000
    O6      O    0.75200   0.84700   0.10500   1.000
    O7      O    0.90500   0.15300   0.89500   1.000
    O8      O    0.94100   0.00000   0.00000   1.000
    O9      O    0.00000   0.94100   0.00000   1.000
    C10     C    0.00000   0.80800   0.00000   1.000
    C11     C    0.80800   0.00000   0.00000   1.000
    C12     C    0.13400   0.13000   0.89500   1.000
    C13     C    0.00400   0.87000   0.10500   1.000
    C14     C    0.99600   0.86600   0.89500   1.000
    C15     C    0.86600   0.99600   0.10500   1.000
    C16     C    0.87000   0.00400   0.89500   1.000
    O17     O    0.26800   0.53800   0.14800   1.000
    C18     C    0.12300   0.56400   0.25000   1.000
    C19     C    0.24700   0.62400   0.18900   1.000
    O20     O    0.27000   0.73200   0.14800   1.000
    O21     O    0.46200   0.73000   0.14800   1.000
    O22     O    0.46200   0.73000   0.35200   1.000
    O23     O    0.27000   0.73200   0.35200   1.000
    O24     O    0.26800   0.53800   0.35200   1.000
    C25     C    0.43600   0.55900   0.25000   1.000
    C26     C    0.44100   0.87700   0.25000   1.000
    C27     C    0.37700   0.75300   0.18900   1.000
    C28     C    0.37600   0.62300   0.18900   1.000
    C29     C    0.37600   0.62300   0.31100   1.000
    C30     C    0.37700   0.75300   0.31100   1.000
    C31     C    0.24700   0.62400   0.31100   1.000
    O32     O    0.09500   0.24800   0.10500   1.000
    O33     O    0.15300   0.90500   0.39500   1.000
    O34     O    0.75200   0.84700   0.39500   1.000
    O35     O    0.09500   0.24800   0.39500   1.000
    O36     O    0.24800   0.09500   0.60500   1.000
    O37     O    0.84700   0.75200   0.60500   1.000
    O38     O    0.90500   0.15300   0.60500   1.000
    O39     O    0.05900   0.05900   0.50000   1.000
    O40     O    0.94100   0.00000   0.50000   1.000
    O41     O    0.00000   0.94100   0.50000   1.000
    C42     C    0.19200   0.19200   0.50000   1.000
    C43     C    0.80800   0.00000   0.50000   1.000
    C44     C    0.00000   0.80800   0.50000   1.000
    C45     C    0.13000   0.13400   0.39500   1.000
    C46     C    0.86600   0.99600   0.39500   1.000
    C47     C    0.00400   0.87000   0.39500   1.000
    C48     C    0.13400   0.13000   0.60500   1.000
    C49     C    0.99600   0.86600   0.60500   1.000
    C50     C    0.87000   0.00400   0.60500   1.000
    O51     O    0.53800   0.26800   0.85200   1.000
    O52     O    0.73000   0.46200   0.85200   1.000
    O53     O    0.73200   0.27000   0.85200   1.000
    O54     O    0.53800   0.26800   0.64800   1.000
    O55     O    0.73000   0.46200   0.64800   1.000
    O56     O    0.73200   0.27000   0.64800   1.000
    C57     C    0.56400   0.12300   0.75000   1.000
    C58     C    0.55900   0.43600   0.75000   1.000
    C59     C    0.87700   0.44100   0.75000   1.000
    C60     C    0.62400   0.24700   0.81100   1.000
    C61     C    0.62300   0.37600   0.81100   1.000
    C62     C    0.75300   0.37700   0.81100   1.000
    C63     C    0.62400   0.24700   0.68900   1.000
    C64     C    0.62300   0.37600   0.68900   1.000
    C65     C    0.75300   0.37700   0.68900   1.000
loop_
    _geom_bond_atom_site_label_1
    _geom_bond_atom_site_label_2
    _geom_bond_distance
    _geom_bond_site_symmetry_2
    _ccdc_geom_bond_type
    C16    O7        1.50926      .   S
    C16    C11       1.67302  1_556   S
    C14    O5        1.50926      .   S
    C14    C10       1.67302  1_656   S
    C12    O3        1.50926      .   S
    C12    C1        1.67302  1_556   S
    O0     O9        1.14290  1_545   S
    O0     O8        1.14290  1_455   S
    O9     O8        1.14290  1_465   S
    C1     C2        1.67302      .   S
    C10    C13       1.67302      .   S
    C11    C15       1.67302  1_545   S
    C15    O6        1.50926      .   S
    O32    C2        1.50926      .   S
    C13    O4        1.50926      .   S
    O17    C28       1.25391      .   S
    O17    C19       1.25062      .   S
    O21    C28       1.25062      .   S
    O21    C27       1.25391      .   S
    O20    C27       1.25062      .   S
    O20    C19       1.25391      .   S
    C28    C27       1.44836      .   S
    C28    C19       1.44836      .   S
    C27    C19       1.44836      .   S
    C29    C30       1.44836      .   S
    C29    C31       1.44836      .   S
    C29    O24       1.25391      .   S
    C29    O22       1.25062      .   S
    C30    C31       1.44836      .   S
    C30    O23       1.25062      .   S
    C30    O22       1.25391      .   S
    C31    O24       1.25062      .   S
    C31    O23       1.25391      .   S
    C47    O33       1.50926      .   S
    C47    C44       1.67302      .   S
    C46    O34       1.50926      .   S
    C46    C43       1.67302  1_565   S
    C45    O35       1.50926      .   S
    C45    C42       1.67302      .   S
    O39    O41       1.14290  1_545   S
    O39    O40       1.14290  1_455   S
    O41    O40       1.14290  1_465   S
    C43    C50       1.67302      .   S
    C42    C48       1.67302      .   S
    C44    C49       1.67302  1_455   S
    O37    C49       1.50926      .   S
    O38    C50       1.50926      .   S
    C48    O36       1.50926      .   S
    O55    C65       1.25391      .   S
    O55    C64       1.25062      .   S
    O56    C65       1.25062      .   S
    O56    C63       1.25391      .   S
    O54    C64       1.25391      .   S
    O54    C63       1.25062      .   S
    C65    C64       1.44836      .   S
    C65    C63       1.44836      .   S
    C64    C63       1.44836      .   S
    C62    C61       1.44836      .   S
    C62    C60       1.44836      .   S
    C62    O53       1.25062      .   S
    C62    O52       1.25391      .   S
    C61    C60       1.44836      .   S
    C61    O52       1.25062      .   S
    C61    O51       1.25391      .   S
    C60    O53       1.25391      .   S
    C60    O51       1.25062      .   S
