# CIF file generated by openbabel 2.4.90, see http://openbabel.sf.net
data_I
_chemical_name_common ''
_cell_length_a 11.184
_cell_length_b 11.184
_cell_length_c 14.591
_cell_angle_alpha 90
_cell_angle_beta 90
_cell_angle_gamma 120
_space_group_name_H-M_alt 'P 1'
_space_group_name_Hall 'P 1'
loop_
    _symmetry_equiv_pos_as_xyz
    x,y,z
loop_
    _atom_site_label
    _atom_site_type_symbol
    _atom_site_fract_x
    _atom_site_fract_y
    _atom_site_fract_z
    _atom_site_occupancy
    Fe0     Fe   0.76900   0.23700   0.25000   1.000
    O1      O    0.66600   0.33300   0.25000   1.000
    O2      O    0.89300   0.37000   0.15100   1.000
    O3      O    0.88100   0.55900   0.15400   1.000
    C4      C    0.91900   0.48200   0.11400   1.000
    Fe5     Fe   0.76300   0.53200   0.25000   1.000
    Fe6     Fe   0.46800   0.23100   0.25000   1.000
    Fe7     Fe   0.23100   0.46800   0.75000   1.000
    Fe8     Fe   0.23700   0.76900   0.75000   1.000
    Fe9     Fe   0.53200   0.76300   0.75000   1.000
    O10     O    0.10700   0.47700   0.84900   1.000
    O11     O    0.89300   0.37000   0.34900   1.000
    O12     O    0.10700   0.47700   0.65100   1.000
    O13     O    0.47700   0.10700   0.15100   1.000
    O14     O    0.37000   0.89300   0.84900   1.000
    O15     O    0.63000   0.52300   0.15100   1.000
    O16     O    0.63000   0.52300   0.34900   1.000
    O17     O    0.47700   0.10700   0.34900   1.000
    O18     O    0.11900   0.67800   0.84600   1.000
    O19     O    0.88100   0.55900   0.34600   1.000
    O20     O    0.11900   0.67800   0.65400   1.000
    O21     O    0.67800   0.11900   0.15400   1.000
    O22     O    0.55900   0.88100   0.84600   1.000
    O23     O    0.67800   0.11900   0.34600   1.000
    O24     O    0.44100   0.32200   0.15400   1.000
    O25     O    0.44100   0.32200   0.34600   1.000
    C26     C    0.08100   0.56300   0.88600   1.000
    C27     C    0.91900   0.48200   0.38600   1.000
    C28     C    0.08100   0.56300   0.61400   1.000
    C29     C    0.56300   0.08100   0.11400   1.000
    C30     C    0.48200   0.91900   0.88600   1.000
    O31     O    0.66700   0.33300   0.25000   1.000
    O32     O    0.66700   0.33400   0.25000   1.000
    O33     O    0.33300   0.66600   0.75000   1.000
    O34     O    0.33300   0.66700   0.75000   1.000
    O35     O    0.33400   0.66700   0.75000   1.000
    O36     O    0.52300   0.63000   0.84900   1.000
    O37     O    0.37000   0.89300   0.65100   1.000
    O38     O    0.52300   0.63000   0.65100   1.000
    O39     O    0.32200   0.44100   0.84600   1.000
    O40     O    0.55900   0.88100   0.65400   1.000
    O41     O    0.32200   0.44100   0.65400   1.000
    C42     C    0.51800   0.43700   0.11400   1.000
    C43     C    0.51800   0.43700   0.38600   1.000
    C44     C    0.56300   0.08100   0.38600   1.000
    C45     C    0.43700   0.51800   0.88600   1.000
    C46     C    0.48200   0.91900   0.61400   1.000
    C47     C    0.43700   0.51800   0.61400   1.000
loop_
    _geom_bond_atom_site_label_1
    _geom_bond_atom_site_label_2
    _geom_bond_distance
    _geom_bond_site_symmetry_2
    _ccdc_geom_bond_type
    Fe7    O41       1.84293      .   S
    Fe7    O33       1.91805      .   S
    Fe7    O39       1.84293      .   S
    Fe8    O18       1.84293      .   S
    Fe8    O20       1.84293      .   S
    Fe8    O34       1.91805      .   S
    Fe9    O22       1.84293      .   S
    Fe9    O40       1.84293      .   S
    Fe9    O35       1.91805      .   S
    O22    C30       1.27627      .   S
    O18    C26       1.27627      .   S
    O14    C30       1.25730      .   S
    O10    C26       1.25730      .   S
    C4     O2        1.25730      .   S
    C4     O3        1.27627      .   S
    C42    O15       1.25730      .   S
    C42    O24       1.27627      .   S
    C29    O13       1.25730      .   S
    C29    O21       1.27627      .   S
    O3     Fe5       1.84293      .   S
    O24    Fe6       1.84293      .   S
    O21    Fe0       1.84293      .   S
    O31    Fe0       1.91805      .   S
    O32    Fe5       1.91805      .   S
    Fe6    O1        1.91805      .   S
    Fe6    O25       1.84293      .   S
    Fe5    O19       1.84293      .   S
    Fe0    O23       1.84293      .   S
    O19    C27       1.27627      .   S
    O23    C44       1.27627      .   S
    O25    C43       1.27627      .   S
    O16    C43       1.25730      .   S
    O11    C27       1.25730      .   S
    O17    C44       1.25730      .   S
    C47    O38       1.25730      .   S
    C47    O41       1.27627      .   S
    C28    O12       1.25730      .   S
    C28    O20       1.27627      .   S
    C46    O37       1.25730      .   S
    C46    O40       1.27627      .   S
    O39    C45       1.27627      .   S
    O36    C45       1.25730      .   S
    O1     Fe0       1.92784      .   S
    O1     Fe5       1.92764      .   S
    O2     Fe0       2.03951      .   S
    O10    Fe7       2.03951      .   S
    O11    Fe0       2.03951      .   S
    O12    Fe7       2.03951      .   S
    O13    Fe6       2.03951      .   S
    O14    Fe8       2.03951      .   S
    O15    Fe5       2.03951      .   S
    O16    Fe5       2.03951      .   S
    O17    Fe6       2.03951      .   S
    O31    Fe5       1.92784      .   S
    O31    Fe6       1.92764      .   S
    O32    Fe0       1.92764      .   S
    O32    Fe6       1.92784      .   S
    O33    Fe8       1.92784      .   S
    O33    Fe9       1.92764      .   S
    O34    Fe7       1.92764      .   S
    O34    Fe9       1.92784      .   S
    O35    Fe7       1.92784      .   S
    O35    Fe8       1.92764      .   S
    O36    Fe9       2.03951      .   S
    O37    Fe8       2.03951      .   S
    O38    Fe9       2.03951      .   S
