# CIF file generated by openbabel 2.4.90, see http://openbabel.sf.net
data_I
_chemical_name_common ''
_cell_length_a 11.184
_cell_length_b 11.184
_cell_length_c 14.591
_cell_angle_alpha 90
_cell_angle_beta 90
_cell_angle_gamma 120
_space_group_name_H-M_alt 'P 1'
_space_group_name_Hall 'P 1'
loop_
    _symmetry_equiv_pos_as_xyz
    x,y,z
loop_
    _atom_site_label
    _atom_site_type_symbol
    _atom_site_fract_x
    _atom_site_fract_y
    _atom_site_fract_z
    _atom_site_occupancy
    N0      N    0.51450   0.00000   0.50000   1.000
    N1      N    0.51450   0.00000   0.00000   1.000
    N2      N    0.00000   0.51450   0.50000   1.000
    N3      N    0.48550   0.48550   0.50000   1.000
    N4      N    0.48550   0.48550   0.00000   1.000
    N5      N    0.00000   0.51450   0.00000   1.000
    Zr6     Zr   0.33333   0.66667   0.75000   1.000
    O7      O    0.41579   0.81508   0.64163   1.000
    O8      O    0.41579   0.81508   0.85837   1.000
    O9      O    0.18492   0.60071   0.85837   1.000
    O10     O    0.39929   0.58421   0.64163   1.000
    O11     O    0.39929   0.58421   0.85837   1.000
    O12     O    0.18492   0.60071   0.64163   1.000
    Zr13    Zr   0.66667   0.33333   0.25000   1.000
    O14     O    0.60071   0.18492   0.14163   1.000
    O15     O    0.58421   0.39929   0.14163   1.000
    O16     O    0.60071   0.18492   0.35837   1.000
    O17     O    0.58421   0.39929   0.35837   1.000
    O18     O    0.81508   0.41579   0.35837   1.000
    O19     O    0.81508   0.41579   0.14163   1.000
loop_
    _geom_bond_atom_site_label_1
    _geom_bond_atom_site_label_2
    _geom_bond_distance
    _geom_bond_site_symmetry_2
    _ccdc_geom_bond_type
    Zr6    O7        2.13903      .   S
    N0     O7        2.73549  1_545   S
    Zr6    O8        2.13903      .   S
    N1     O8        2.73549  1_544   S
    Zr6    O9        2.13903      .   S
    N5     O9        2.73549  1_554   S
    Zr6    O10       2.13903      .   S
    N3     O10       2.73549      .   S
    Zr6    O11       2.13903      .   S
    N4     O11       2.73549  1_554   S
    Zr6    O12       2.13903      .   S
    N2     O12       2.73549      .   S
    Zr13   O14       2.13903      .   S
    N1     O14       2.73549      .   S
    Zr13   O15       2.13903      .   S
    N4     O15       2.73549      .   S
    Zr13   O16       2.13903      .   S
    N0     O16       2.73549      .   S
    Zr13   O17       2.13903      .   S
    N3     O17       2.73549      .   S
    Zr13   O18       2.13903      .   S
    N2     O18       2.73549  1_455   S
    Zr13   O19       2.13903      .   S
    N5     O19       2.73549  1_455   S
