# CIF file generated by openbabel 2.4.90, see http://openbabel.sf.net
data_I
_chemical_name_common ''
_cell_length_a 11.184
_cell_length_b 11.184
_cell_length_c 14.591
_cell_angle_alpha 90
_cell_angle_beta 90
_cell_angle_gamma 120
_space_group_name_H-M_alt 'P 1'
_space_group_name_Hall 'P 1'
loop_
    _symmetry_equiv_pos_as_xyz
    x,y,z
loop_
    _atom_site_label
    _atom_site_type_symbol
    _atom_site_fract_x
    _atom_site_fract_y
    _atom_site_fract_z
    _atom_site_occupancy
    N0      N    0.00000   0.00000   0.50000   1.000
    N1      N    0.66667   0.33333   0.66850   1.000
    N2      N    0.15980   0.15980   0.00000   1.000
    N3      N    0.66667   0.33333   0.83150   1.000
    N4      N    0.51450   0.00000   0.50000   1.000
    N5      N    0.33333   0.66667   0.16850   1.000
    N6      N    0.84020   0.00000   0.00000   1.000
    N7      N    0.33333   0.66667   0.33150   1.000
    N8      N    0.51450   0.00000   0.00000   1.000
    N9      N    0.15980   0.15980   0.50000   1.000
    N10     N    0.00000   0.00000   0.00000   1.000
    N11     N    0.23650   0.01450   0.25000   1.000
    N12     N    0.22200   0.98550   0.75000   1.000
    N13     N    0.00000   0.84020   0.50000   1.000
    N14     N    0.98550   0.22200   0.25000   1.000
    N15     N    0.00000   0.51450   0.50000   1.000
    N16     N    0.12300   0.56400   0.25000   1.000
    N17     N    0.84020   0.00000   0.50000   1.000
    N18     N    0.48550   0.48550   0.50000   1.000
    N19     N    0.00000   0.84020   0.00000   1.000
    N20     N    0.43600   0.55900   0.25000   1.000
    N21     N    0.56400   0.12300   0.75000   1.000
    N22     N    0.01450   0.23650   0.75000   1.000
    N23     N    0.87700   0.44100   0.75000   1.000
    N24     N    0.76350   0.77800   0.75000   1.000
    N25     N    0.48550   0.48550   0.00000   1.000
    N26     N    0.00000   0.51450   0.00000   1.000
    N27     N    0.55900   0.43600   0.75000   1.000
    N28     N    0.77800   0.76350   0.25000   1.000
    N29     N    0.44100   0.87700   0.25000   1.000
    Zr30    Zr   0.33333   0.66667   0.75000   1.000
    O31     O    0.51604   0.72658   0.75000   1.000
    O32     O    0.41579   0.81508   0.64163   1.000
    O33     O    0.41579   0.81508   0.85837   1.000
    O34     O    0.18492   0.60071   0.85837   1.000
    O35     O    0.21054   0.48396   0.75000   1.000
    O36     O    0.39929   0.58421   0.64163   1.000
    O37     O    0.39929   0.58421   0.85837   1.000
    O38     O    0.27342   0.78946   0.75000   1.000
    O39     O    0.18492   0.60071   0.64163   1.000
    Zr40    Zr   0.66667   0.33333   0.25000   1.000
    O41     O    0.72658   0.51604   0.25000   1.000
    O42     O    0.60071   0.18492   0.14163   1.000
    O43     O    0.58421   0.39929   0.14163   1.000
    O44     O    0.48396   0.21054   0.25000   1.000
    O45     O    0.60071   0.18492   0.35837   1.000
    O46     O    0.58421   0.39929   0.35837   1.000
    O47     O    0.81508   0.41579   0.35837   1.000
    O48     O    0.78946   0.27342   0.25000   1.000
    O49     O    0.81508   0.41579   0.14163   1.000
loop_
    _geom_bond_atom_site_label_1
    _geom_bond_atom_site_label_2
    _geom_bond_distance
    _geom_bond_site_symmetry_2
    _ccdc_geom_bond_type
    Zr30   O31       1.80423      .   S
    N24    O31       2.52956      .   S
    Zr30   O32       2.13903      .   S
    N4     O32       2.73549  1_545   S
    Zr30   O33       2.13903      .   S
    N8     O33       2.73549  1_544   S
    Zr30   O34       2.13903      .   S
    N26    O34       2.73549  1_554   S
    Zr30   O35       1.80423      .   S
    N22    O35       2.52956      .   S
    Zr30   O36       2.13903      .   S
    N18    O36       2.73549      .   S
    Zr30   O37       2.13903      .   S
    N25    O37       2.73549  1_554   S
    Zr30   O38       1.80423      .   S
    N12    O38       2.52956      .   S
    Zr30   O39       2.13903      .   S
    N15    O39       2.73549      .   S
    Zr40   O41       1.80423      .   S
    N28    O41       2.52956      .   S
    Zr40   O42       2.13903      .   S
    N8     O42       2.73549      .   S
    Zr40   O43       2.13903      .   S
    N25    O43       2.73549      .   S
    Zr40   O44       1.80423      .   S
    N11    O44       2.52956      .   S
    Zr40   O45       2.13903      .   S
    N4     O45       2.73549      .   S
    Zr40   O46       2.13903      .   S
    N18    O46       2.73549      .   S
    Zr40   O47       2.13903      .   S
    N15    O47       2.73549  1_455   S
    Zr40   O48       1.80423      .   S
    N14    O48       2.52956      .   S
    Zr40   O49       2.13903      .   S
    N26    O49       2.73549  1_455   S
