# CIF file generated by openbabel 2.4.90, see http://openbabel.sf.net
data_I
_chemical_name_common ''
_cell_length_a 39.222
_cell_length_b 26.018
_cell_length_c 27.887
_cell_angle_alpha 90
_cell_angle_beta 90
_cell_angle_gamma 90
_space_group_name_H-M_alt 'P 1'
_space_group_name_Hall 'P 1'
loop_
    _symmetry_equiv_pos_as_xyz
    x,y,z
loop_
    _atom_site_label
    _atom_site_type_symbol
    _atom_site_fract_x
    _atom_site_fract_y
    _atom_site_fract_z
    _atom_site_occupancy
    C0      C    0.06330   0.36450   0.70090   1.000
    C1      C    0.15610   0.44590   0.80290   1.000
    C2      C    0.84530   0.03600   0.80120   1.000
    C3      C    0.93690   0.12120   0.56510   1.000
    C4      C    0.93830   0.14080   0.72040   1.000
    C5      C    0.15530   0.44460   0.44850   1.000
    C6      C    0.84360   0.03460   0.46570   1.000
    C7      C    0.00120   0.22120   0.47170   1.000
    C8      C    0.06200   0.34550   0.53430   1.000
    C9      C    0.99990   0.22740   0.28830   1.000
    C10     C    0.84360   0.53460   0.96570   1.000
    C11     C    0.15640   0.46540   0.96570   1.000
    C12     C    0.09360   0.71540   0.21570   1.000
    C13     C    0.40640   0.78460   0.21570   1.000
    C14     C    0.34360   0.53460   0.46570   1.000
    C15     C    0.65640   0.46540   0.46570   1.000
    C16     C    0.59360   0.71540   0.71570   1.000
    C17     C    0.90640   0.78460   0.71570   1.000
    C18     C    0.93670   0.63550   0.70090   1.000
    C19     C    0.31330   0.88550   0.95090   1.000
    C20     C    0.18670   0.61450   0.95090   1.000
    C21     C    0.56330   0.36450   0.20090   1.000
    C22     C    0.43670   0.63550   0.20090   1.000
    C23     C    0.81330   0.88550   0.45090   1.000
    C24     C    0.68670   0.61450   0.45090   1.000
    C25     C    0.06330   0.86450   0.20090   1.000
    C26     C    0.93670   0.13550   0.20090   1.000
    C27     C    0.31330   0.38550   0.45090   1.000
    C28     C    0.18670   0.11450   0.45090   1.000
    C29     C    0.56330   0.86450   0.70090   1.000
    C30     C    0.43670   0.13550   0.70090   1.000
    C31     C    0.81330   0.38550   0.95090   1.000
    C32     C    0.68670   0.11450   0.95090   1.000
    C33     C    0.84390   0.55410   0.80290   1.000
    C34     C    0.40610   0.80410   0.05290   1.000
    C35     C    0.09390   0.69590   0.05290   1.000
    C36     C    0.65610   0.44590   0.30290   1.000
    C37     C    0.34390   0.55410   0.30290   1.000
    C38     C    0.90610   0.80410   0.55290   1.000
    C39     C    0.59390   0.69590   0.55290   1.000
    C40     C    0.15610   0.94590   0.30290   1.000
    C41     C    0.84390   0.05410   0.30290   1.000
    C42     C    0.40610   0.30410   0.55290   1.000
    C43     C    0.09390   0.19590   0.55290   1.000
    C44     C    0.65610   0.94590   0.80290   1.000
    C45     C    0.34390   0.05410   0.80290   1.000
    C46     C    0.90610   0.30410   0.05290   1.000
    C47     C    0.59390   0.19590   0.05290   1.000
    C48     C    0.15470   0.96400   0.80120   1.000
    C49     C    0.09530   0.21400   0.05120   1.000
    C50     C    0.40470   0.28600   0.05120   1.000
    C51     C    0.34530   0.03600   0.30120   1.000
    C52     C    0.65470   0.96400   0.30120   1.000
    C53     C    0.59530   0.21400   0.55120   1.000
    C54     C    0.90470   0.28600   0.55120   1.000
    C55     C    0.84530   0.53600   0.30120   1.000
    C56     C    0.15470   0.46400   0.30120   1.000
    C57     C    0.09530   0.71400   0.55120   1.000
    C58     C    0.40470   0.78600   0.55120   1.000
    C59     C    0.34530   0.53600   0.80120   1.000
    C60     C    0.65470   0.46400   0.80120   1.000
    C61     C    0.59530   0.71400   0.05120   1.000
    C62     C    0.90470   0.78600   0.05120   1.000
    C63     C    0.06310   0.87880   0.56510   1.000
    C64     C    0.18690   0.12880   0.81510   1.000
    C65     C    0.31310   0.37120   0.81510   1.000
    C66     C    0.43690   0.12120   0.06510   1.000
    C67     C    0.56310   0.87880   0.06510   1.000
    C68     C    0.68690   0.12880   0.31510   1.000
    C69     C    0.81310   0.37120   0.31510   1.000
    C70     C    0.93690   0.62120   0.06510   1.000
    C71     C    0.06310   0.37880   0.06510   1.000
    C72     C    0.18690   0.62880   0.31510   1.000
    C73     C    0.31310   0.87120   0.31510   1.000
    C74     C    0.43690   0.62120   0.56510   1.000
    C75     C    0.56310   0.37880   0.56510   1.000
    C76     C    0.68690   0.62880   0.81510   1.000
    C77     C    0.81310   0.87120   0.81510   1.000
    C78     C    0.06170   0.85920   0.72040   1.000
    C79     C    0.18830   0.10920   0.97040   1.000
    C80     C    0.31170   0.39080   0.97040   1.000
    C81     C    0.43830   0.14080   0.22040   1.000
    C82     C    0.56170   0.85920   0.22040   1.000
    C83     C    0.68830   0.10920   0.47040   1.000
    C84     C    0.81170   0.39080   0.47040   1.000
    C85     C    0.93830   0.64080   0.22040   1.000
    C86     C    0.06170   0.35920   0.22040   1.000
    C87     C    0.18830   0.60920   0.47040   1.000
    C88     C    0.31170   0.89080   0.47040   1.000
    C89     C    0.43830   0.64080   0.72040   1.000
    C90     C    0.56170   0.35920   0.72040   1.000
    C91     C    0.68830   0.60920   0.97040   1.000
    C92     C    0.81170   0.89080   0.97040   1.000
    C93     C    0.84470   0.55540   0.44850   1.000
    C94     C    0.40530   0.80540   0.69850   1.000
    C95     C    0.09470   0.69460   0.69850   1.000
    C96     C    0.65530   0.44460   0.94850   1.000
    C97     C    0.34470   0.55540   0.94850   1.000
    C98     C    0.90530   0.80540   0.19850   1.000
    C99     C    0.59470   0.69460   0.19850   1.000
    C100    C    0.15530   0.94460   0.94850   1.000
    C101    C    0.84470   0.05540   0.94850   1.000
    C102    C    0.40530   0.30540   0.19850   1.000
    C103    C    0.09470   0.19460   0.19850   1.000
    C104    C    0.65530   0.94460   0.44850   1.000
    C105    C    0.34470   0.05540   0.44850   1.000
    C106    C    0.90530   0.30540   0.69850   1.000
    C107    C    0.59470   0.19460   0.69850   1.000
    C108    C    0.15640   0.96540   0.46570   1.000
    C109    C    0.09360   0.21540   0.71570   1.000
    C110    C    0.40640   0.28460   0.71570   1.000
    C111    C    0.34360   0.03460   0.96570   1.000
    C112    C    0.65640   0.96540   0.96570   1.000
    C113    C    0.59360   0.21540   0.21570   1.000
    C114    C    0.90640   0.28460   0.21570   1.000
    C115    C    0.99880   0.77880   0.47170   1.000
    C116    C    0.25120   0.02880   0.72170   1.000
    C117    C    0.24880   0.47120   0.72170   1.000
    C118    C    0.50120   0.22120   0.97170   1.000
    C119    C    0.49880   0.77880   0.97170   1.000
    C120    C    0.75120   0.02880   0.22170   1.000
    C121    C    0.74880   0.47120   0.22170   1.000
    C122    C    0.00120   0.72120   0.97170   1.000
    C123    C    0.99880   0.27880   0.97170   1.000
    C124    C    0.25120   0.52880   0.22170   1.000
    C125    C    0.24880   0.97120   0.22170   1.000
    C126    C    0.50120   0.72120   0.47170   1.000
    C127    C    0.49880   0.27880   0.47170   1.000
    C128    C    0.75120   0.52880   0.72170   1.000
    C129    C    0.74880   0.97120   0.72170   1.000
    C130    C    0.93800   0.65450   0.53430   1.000
    C131    C    0.31200   0.90450   0.78430   1.000
    C132    C    0.18800   0.59550   0.78430   1.000
    C133    C    0.56200   0.34550   0.03430   1.000
    C134    C    0.43800   0.65450   0.03430   1.000
    C135    C    0.81200   0.90450   0.28430   1.000
    C136    C    0.68800   0.59550   0.28430   1.000
    C137    C    0.06200   0.84550   0.03430   1.000
    C138    C    0.93800   0.15450   0.03430   1.000
    C139    C    0.31200   0.40450   0.28430   1.000
    C140    C    0.18800   0.09550   0.28430   1.000
    C141    C    0.56200   0.84550   0.53430   1.000
    C142    C    0.43800   0.15450   0.53430   1.000
    C143    C    0.81200   0.40450   0.78430   1.000
    C144    C    0.68800   0.09550   0.78430   1.000
    C145    C    0.00010   0.77260   0.28830   1.000
    C146    C    0.24990   0.02260   0.53830   1.000
    C147    C    0.25010   0.47740   0.53830   1.000
    C148    C    0.49990   0.22740   0.78830   1.000
    C149    C    0.50010   0.77260   0.78830   1.000
    C150    C    0.74990   0.02260   0.03830   1.000
    C151    C    0.75010   0.47740   0.03830   1.000
    C152    C    0.99990   0.72740   0.78830   1.000
    C153    C    0.00010   0.27260   0.78830   1.000
    C154    C    0.24990   0.52260   0.03830   1.000
    C155    C    0.25010   0.97740   0.03830   1.000
    C156    C    0.49990   0.72740   0.28830   1.000
    C157    C    0.50010   0.27260   0.28830   1.000
    C158    C    0.74990   0.52260   0.53830   1.000
    C159    C    0.75010   0.97740   0.53830   1.000
