# CIF file generated by openbabel 2.4.90, see http://openbabel.sf.net
data_I
_chemical_name_common ''
_cell_length_a 24.057
_cell_length_b 24.057
_cell_length_c 26.996
_cell_angle_alpha 90
_cell_angle_beta 90
_cell_angle_gamma 120
_space_group_name_H-M_alt 'P 1'
_space_group_name_Hall 'P 1'
loop_
    _symmetry_equiv_pos_as_xyz
    x,y,z
loop_
    _atom_site_label
    _atom_site_type_symbol
    _atom_site_fract_x
    _atom_site_fract_y
    _atom_site_fract_z
    _atom_site_occupancy
    C0      C    0.39360   0.17184   0.05329   1.000
    C1      C    0.34415   0.06780   0.09920   1.000
    C2      C    0.36143   0.03123   0.12795   1.000
    C3      C    0.32598   0.96419   0.12539   1.000
    C4      C    0.27373   0.93264   0.09423   1.000
    C5      C    0.25564   0.96995   0.06694   1.000
    C6      C    0.29003   0.03602   0.06944   1.000
    C7      C    0.23843   0.86207   0.08916   1.000
    C8      C    0.17178   0.82822   0.08330   1.000
    C9      C    0.27162   0.82833   0.08888   1.000
    C10     C    0.23855   0.76145   0.08330   1.000
    C11     C    0.27450   0.72550   0.08330   1.000
    C12     C    0.33013   0.74699   0.11080   1.000
    C13     C    0.36340   0.71332   0.11057   1.000
    C14     C    0.17184   0.39360   0.61338   1.000
    C15     C    0.45320   0.27333   0.09428   1.000
    C16     C    0.42618   0.23695   0.05099   1.000
    C17     C    0.44580   0.24208   0.13816   1.000
    C18     C    0.41248   0.17550   0.13970   1.000
    C19     C    0.38370   0.13940   0.09776   1.000
    C20     C    0.34212   0.65788   0.08330   1.000
    C21     C    0.37772   0.62228   0.08330   1.000
    C22     C    0.41267   0.62256   0.12458   1.000
    C23     C    0.44576   0.55424   0.08330   1.000
    C24     C    0.44591   0.58901   0.12588   1.000
    C25     C    0.55420   0.75792   0.63816   1.000
    C26     C    0.72667   0.17987   0.76095   1.000
    C27     C    0.82013   0.54680   0.42761   1.000
    C28     C    0.54680   0.72667   0.59428   1.000
    C29     C    0.27333   0.82013   0.26095   1.000
    C30     C    0.17987   0.45320   0.92761   1.000
    C31     C    0.27333   0.45320   0.57239   1.000
    C32     C    0.17987   0.72667   0.90572   1.000
    C33     C    0.54680   0.82013   0.23905   1.000
    C34     C    0.72667   0.54680   0.07239   1.000
    C35     C    0.82013   0.27333   0.40572   1.000
    C36     C    0.45320   0.17987   0.73905   1.000
    C37     C    0.76305   0.18923   0.71766   1.000
    C38     C    0.81077   0.57382   0.38432   1.000
    C39     C    0.57382   0.76305   0.55099   1.000
    C40     C    0.23695   0.81077   0.21766   1.000
    C41     C    0.18923   0.42618   0.88432   1.000
    C42     C    0.23695   0.42618   0.61568   1.000
    C43     C    0.18923   0.76305   0.94901   1.000
    C44     C    0.57382   0.81077   0.28234   1.000
    C45     C    0.76305   0.57382   0.11568   1.000
    C46     C    0.81077   0.23695   0.44901   1.000
    C47     C    0.42618   0.18923   0.78234   1.000
    C48     C    0.75792   0.20372   0.80483   1.000
    C49     C    0.79628   0.55420   0.47149   1.000
    C50     C    0.03581   0.36179   0.79206   1.000
    C51     C    0.63821   0.67402   0.45872   1.000
    C52     C    0.24208   0.79628   0.30483   1.000
    C53     C    0.20372   0.44580   0.97149   1.000
    C54     C    0.24208   0.44580   0.52851   1.000
    C55     C    0.20372   0.75792   0.86184   1.000
    C56     C    0.55420   0.79628   0.19517   1.000
    C57     C    0.75792   0.55420   0.02851   1.000
    C58     C    0.79628   0.24208   0.36184   1.000
    C59     C    0.44580   0.20372   0.69517   1.000
    C60     C    0.82450   0.23698   0.80637   1.000
    C61     C    0.76302   0.58752   0.47303   1.000
    C62     C    0.58752   0.82450   0.63970   1.000
    C63     C    0.17550   0.76302   0.30637   1.000
    C64     C    0.23698   0.41248   0.97303   1.000
    C65     C    0.17550   0.41248   0.52697   1.000
    C66     C    0.23698   0.82450   0.86030   1.000
    C67     C    0.58752   0.76302   0.19363   1.000
    C68     C    0.82450   0.58752   0.02697   1.000
    C69     C    0.76302   0.17550   0.36030   1.000
    C70     C    0.41248   0.23698   0.69363   1.000
    C71     C    0.86060   0.24430   0.76443   1.000
    C72     C    0.75570   0.61630   0.43109   1.000
    C73     C    0.61630   0.86060   0.59776   1.000
    C74     C    0.13940   0.75570   0.26443   1.000
    C75     C    0.24430   0.38370   0.93109   1.000
    C76     C    0.13940   0.38370   0.56891   1.000
    C77     C    0.24430   0.86060   0.90224   1.000
    C78     C    0.61630   0.75570   0.23557   1.000
    C79     C    0.86060   0.61630   0.06891   1.000
    C80     C    0.75570   0.13940   0.40224   1.000
    C81     C    0.38370   0.24430   0.73557   1.000
    C82     C    0.82816   0.22176   0.71996   1.000
    C83     C    0.77824   0.60640   0.38662   1.000
    C84     C    0.60640   0.82816   0.55329   1.000
    C85     C    0.17184   0.77824   0.21996   1.000
    C86     C    0.22176   0.39360   0.88662   1.000
    C87     C    0.23855   0.47710   0.74997   1.000
    C88     C    0.52290   0.76145   0.41663   1.000
    C89     C    0.76145   0.23855   0.58330   1.000
    C90     C    0.22176   0.82816   0.94671   1.000
    C91     C    0.60640   0.77824   0.28004   1.000
    C92     C    0.82816   0.60640   0.11338   1.000
    C93     C    0.77824   0.17184   0.44671   1.000
    C94     C    0.39360   0.22176   0.78004   1.000
    C95     C    0.93220   0.27635   0.76587   1.000
    C96     C    0.72365   0.65585   0.43253   1.000
    C97     C    0.65585   0.93220   0.59920   1.000
    C98     C    0.06780   0.72365   0.26587   1.000
    C99     C    0.27635   0.34415   0.93253   1.000
    C100    C    0.06780   0.34415   0.56747   1.000
    C101    C    0.27635   0.93220   0.90080   1.000
    C102    C    0.65585   0.72365   0.23413   1.000
    C103    C    0.93220   0.65585   0.06747   1.000
    C104    C    0.72365   0.06780   0.40080   1.000
    C105    C    0.34415   0.27635   0.73413   1.000
    C106    C    0.96877   0.33020   0.79462   1.000
    C107    C    0.66980   0.63857   0.46128   1.000
    C108    C    0.63857   0.96877   0.62795   1.000
    C109    C    0.03123   0.66980   0.29462   1.000
    C110    C    0.33020   0.36143   0.96128   1.000
    C111    C    0.03123   0.36143   0.53872   1.000
    C112    C    0.33020   0.96877   0.87205   1.000
    C113    C    0.63857   0.66980   0.20538   1.000
    C114    C    0.96877   0.63857   0.03872   1.000
    C115    C    0.66980   0.03123   0.37205   1.000
    C116    C    0.36143   0.33020   0.70538   1.000
    C117    C    0.44576   0.89152   0.74997   1.000
    C118    C    0.10848   0.55424   0.41663   1.000
    C119    C    0.55424   0.44576   0.58330   1.000
    C120    C    0.67402   0.03581   0.62539   1.000
    C121    C    0.96419   0.63821   0.29206   1.000
    C122    C    0.36179   0.32598   0.95872   1.000
    C123    C    0.96419   0.32598   0.54128   1.000
    C124    C    0.36179   0.03581   0.87461   1.000
    C125    C    0.67402   0.63821   0.20794   1.000
    C126    C    0.03581   0.67402   0.04128   1.000
    C127    C    0.63821   0.96419   0.37461   1.000
    C128    C    0.32598   0.36179   0.70794   1.000
    C129    C    0.06736   0.34109   0.76090   1.000
    C130    C    0.65891   0.72627   0.42756   1.000
    C131    C    0.72627   0.06736   0.59423   1.000
    C132    C    0.93264   0.65891   0.26090   1.000
    C133    C    0.34109   0.27373   0.92756   1.000
    C134    C    0.93264   0.27373   0.57244   1.000
    C135    C    0.34109   0.06736   0.90577   1.000
    C136    C    0.72627   0.65891   0.23910   1.000
    C137    C    0.06736   0.72627   0.07244   1.000
    C138    C    0.65891   0.93264   0.40577   1.000
    C139    C    0.27373   0.34109   0.73910   1.000
    C140    C    0.03005   0.28569   0.73361   1.000
    C141    C    0.71431   0.74436   0.40027   1.000
    C142    C    0.74436   0.03005   0.56694   1.000
    C143    C    0.96995   0.71431   0.23361   1.000
    C144    C    0.28569   0.25564   0.90027   1.000
    C145    C    0.96995   0.25564   0.59973   1.000
    C146    C    0.28569   0.03005   0.93306   1.000
    C147    C    0.74436   0.71431   0.26639   1.000
    C148    C    0.03005   0.74436   0.09973   1.000
    C149    C    0.71431   0.96995   0.43306   1.000
    C150    C    0.25564   0.28569   0.76639   1.000
    C151    C    0.96398   0.25401   0.73611   1.000
    C152    C    0.74599   0.70997   0.40277   1.000
    C153    C    0.70997   0.96398   0.56944   1.000
    C154    C    0.03602   0.74599   0.23611   1.000
    C155    C    0.25401   0.29003   0.90277   1.000
    C156    C    0.03602   0.29003   0.59723   1.000
    C157    C    0.25401   0.96398   0.93056   1.000
    C158    C    0.70997   0.74599   0.26389   1.000
    C159    C    0.96398   0.70997   0.09723   1.000
    C160    C    0.74599   0.03602   0.43056   1.000
    C161    C    0.29003   0.25401   0.76389   1.000
    C162    C    0.13793   0.37636   0.75583   1.000
    C163    C    0.62364   0.76157   0.42249   1.000
    C164    C    0.76157   0.13793   0.58916   1.000
    C165    C    0.86207   0.62364   0.25583   1.000
    C166    C    0.37636   0.23843   0.92249   1.000
    C167    C    0.86207   0.23843   0.57751   1.000
    C168    C    0.37636   0.13793   0.91084   1.000
    C169    C    0.76157   0.62364   0.24417   1.000
    C170    C    0.13793   0.76157   0.07751   1.000
    C171    C    0.62364   0.86207   0.41084   1.000
    C172    C    0.23843   0.37636   0.74417   1.000
    C173    C    0.17178   0.34356   0.74997   1.000
    C174    C    0.65644   0.82822   0.41663   1.000
    C175    C    0.82822   0.17178   0.58330   1.000
    C176    C    0.82822   0.65644   0.24997   1.000
    C177    C    0.34356   0.17178   0.91663   1.000
    C178    C    0.17167   0.44329   0.75555   1.000
    C179    C    0.55671   0.72838   0.42221   1.000
    C180    C    0.72838   0.17167   0.58888   1.000
    C181    C    0.82833   0.55671   0.25555   1.000
    C182    C    0.44329   0.27162   0.92221   1.000
    C183    C    0.82833   0.27162   0.57779   1.000
    C184    C    0.44329   0.17167   0.91112   1.000
    C185    C    0.72838   0.55671   0.24445   1.000
    C186    C    0.17167   0.72838   0.07779   1.000
    C187    C    0.55671   0.82833   0.41112   1.000
    C188    C    0.27162   0.44329   0.74445   1.000
    H189    H    0.21970   0.26970   0.78673   1.000
    H190    H    0.94020   0.21690   0.71747   1.000
    H191    H    0.78310   0.72330   0.38413   1.000
    H192    H    0.72330   0.94020   0.55080   1.000
    H193    H    0.05980   0.78310   0.21747   1.000
    H194    H    0.21690   0.27670   0.88413   1.000
    C195    C    0.76145   0.52290   0.24997   1.000
    C196    C    0.47710   0.23855   0.91663   1.000
    C197    C    0.27450   0.54900   0.74997   1.000
    C198    C    0.45100   0.72550   0.41663   1.000
    C199    C    0.72550   0.27450   0.58330   1.000
    C200    C    0.72550   0.45100   0.24997   1.000
    C201    C    0.54900   0.27450   0.91663   1.000
    C202    C    0.25301   0.58314   0.77747   1.000
    C203    C    0.41686   0.66987   0.44413   1.000
    C204    C    0.66987   0.25301   0.61080   1.000
    C205    C    0.74699   0.41686   0.27747   1.000
    C206    C    0.58314   0.33013   0.94413   1.000
    C207    C    0.74699   0.33013   0.55587   1.000
    C208    C    0.58314   0.25301   0.88920   1.000
    C209    C    0.66987   0.41686   0.22253   1.000
    C210    C    0.25301   0.66987   0.05587   1.000
    C211    C    0.41686   0.74699   0.38920   1.000
    C212    C    0.33013   0.58314   0.72253   1.000
    C213    C    0.28668   0.65008   0.77724   1.000
    C214    C    0.34992   0.63660   0.44390   1.000
    C215    C    0.63660   0.28668   0.61057   1.000
    C216    C    0.71332   0.34992   0.27724   1.000
    C217    C    0.65008   0.36340   0.94390   1.000
    C218    C    0.71332   0.36340   0.55610   1.000
    C219    C    0.65008   0.28668   0.88943   1.000
    C220    C    0.63660   0.34992   0.22276   1.000
    C221    C    0.28668   0.63660   0.05610   1.000
    C222    C    0.34992   0.71332   0.38943   1.000
    C223    C    0.36340   0.65008   0.72276   1.000
    C224    C    0.34212   0.68424   0.74997   1.000
    C225    C    0.31576   0.65788   0.41663   1.000
    C226    C    0.65788   0.34212   0.58330   1.000
    C227    C    0.65788   0.31576   0.24997   1.000
    C228    C    0.68424   0.34212   0.91663   1.000
    C229    C    0.37772   0.75544   0.74997   1.000
    C230    C    0.24456   0.62228   0.41663   1.000
    C231    C    0.62228   0.37772   0.58330   1.000
    C232    C    0.62228   0.24456   0.24997   1.000
    C233    C    0.75544   0.37772   0.91663   1.000
    C234    C    0.37744   0.79011   0.79125   1.000
    C235    C    0.20989   0.58733   0.45791   1.000
    C236    C    0.58733   0.37744   0.62458   1.000
    C237    C    0.62256   0.20989   0.29125   1.000
    C238    C    0.79011   0.41267   0.95791   1.000
    C239    C    0.62256   0.41267   0.54209   1.000
    C240    C    0.79011   0.37744   0.87542   1.000
    C241    C    0.58733   0.20989   0.20875   1.000
    C242    C    0.37744   0.58733   0.04209   1.000
    C243    C    0.20989   0.62256   0.37542   1.000
    C244    C    0.41267   0.79011   0.70875   1.000
    C245    C    0.55424   0.10848   0.24997   1.000
    C246    C    0.89152   0.44576   0.91663   1.000
    C247    C    0.41099   0.85690   0.79255   1.000
    C248    C    0.14310   0.55409   0.45921   1.000
    C249    C    0.55409   0.41099   0.62588   1.000
    C250    C    0.58901   0.14310   0.29255   1.000
    C251    C    0.85690   0.44591   0.95921   1.000
    C252    C    0.58901   0.44591   0.54079   1.000
    C253    C    0.85690   0.41099   0.87412   1.000
    C254    C    0.55409   0.14310   0.20745   1.000
    C255    C    0.41099   0.55409   0.04079   1.000
    C256    C    0.14310   0.58901   0.37412   1.000
    C257    C    0.44591   0.85690   0.70745   1.000
    H258    H    0.43070   0.25750   0.02090   1.000
    H259    H    0.46310   0.26550   0.16710   1.000
    H260    H    0.40940   0.15480   0.16950   1.000
    H261    H    0.37750   0.14840   0.02420   1.000
    H262    H    0.39660   0.05120   0.14900   1.000
    H263    H    0.33790   0.94020   0.14520   1.000
    H264    H    0.21970   0.95000   0.04660   1.000
    H265    H    0.27670   0.05980   0.05080   1.000
    H266    H    0.14950   0.85050   0.08330   1.000
    H267    H    0.31600   0.85040   0.09240   1.000
    H268    H    0.34550   0.78420   0.12960   1.000
    H269    H    0.40070   0.72860   0.12920   1.000
    H270    H    0.41380   0.64610   0.15230   1.000
    H271    H    0.46800   0.58940   0.15430   1.000
    H272    H    0.74250   0.17320   0.68757   1.000
    H273    H    0.82680   0.56930   0.35423   1.000
    H274    H    0.56930   0.74250   0.52090   1.000
    H275    H    0.25750   0.82680   0.18757   1.000
    H276    H    0.17320   0.43070   0.85423   1.000
    H277    H    0.25750   0.43070   0.64577   1.000
    H278    H    0.17320   0.74250   0.97910   1.000
    H279    H    0.56930   0.82680   0.31243   1.000
    H280    H    0.74250   0.56930   0.14577   1.000
    H281    H    0.82680   0.25750   0.47910   1.000
    H282    H    0.43070   0.17320   0.81243   1.000
    H283    H    0.73450   0.19760   0.83377   1.000
    H284    H    0.80240   0.53690   0.50043   1.000
    H285    H    0.53690   0.73450   0.66710   1.000
    H286    H    0.26550   0.80240   0.33377   1.000
    H287    H    0.19760   0.46310   0.00043   1.000
    H288    H    0.26550   0.46310   0.49957   1.000
    H289    H    0.19760   0.73450   0.83290   1.000
    H290    H    0.53690   0.80240   0.16623   1.000
    H291    H    0.73450   0.53690   0.99957   1.000
    H292    H    0.80240   0.26550   0.33290   1.000
    H293    H    0.46310   0.19760   0.66623   1.000
    H294    H    0.84520   0.25460   0.83617   1.000
    H295    H    0.74540   0.59060   0.50283   1.000
    H296    H    0.59060   0.84520   0.66950   1.000
    H297    H    0.15480   0.74540   0.33617   1.000
    H298    H    0.25460   0.40940   0.00283   1.000
    H299    H    0.15480   0.40940   0.49717   1.000
    H300    H    0.25460   0.84520   0.83050   1.000
    H301    H    0.59060   0.74540   0.16383   1.000
    H302    H    0.84520   0.59060   0.99717   1.000
    H303    H    0.74540   0.15480   0.33050   1.000
    H304    H    0.40940   0.25460   0.66383   1.000
    H305    H    0.85160   0.22910   0.69087   1.000
    H306    H    0.77090   0.62250   0.35753   1.000
    H307    H    0.62250   0.85160   0.52420   1.000
    H308    H    0.14840   0.77090   0.19087   1.000
    H309    H    0.22910   0.37750   0.85753   1.000
    H310    H    0.14840   0.37750   0.64247   1.000
    H311    H    0.22910   0.85160   0.97580   1.000
    H312    H    0.62250   0.77090   0.30913   1.000
    H313    H    0.85160   0.62250   0.14247   1.000
    H314    H    0.77090   0.14840   0.47580   1.000
    H315    H    0.37750   0.22910   0.80913   1.000
    H316    H    0.94880   0.34540   0.81567   1.000
    H317    H    0.65460   0.60340   0.48233   1.000
    H318    H    0.60340   0.94880   0.64900   1.000
    H319    H    0.05120   0.65460   0.31567   1.000
    H320    H    0.34540   0.39660   0.98233   1.000
    H321    H    0.05120   0.39660   0.51767   1.000
    H322    H    0.34540   0.94880   0.85100   1.000
    H323    H    0.60340   0.65460   0.18433   1.000
    H324    H    0.94880   0.60340   0.01767   1.000
    H325    H    0.65460   0.05120   0.35100   1.000
    H326    H    0.39660   0.34540   0.68433   1.000
    H327    H    0.05980   0.39770   0.81187   1.000
    H328    H    0.60230   0.66210   0.47853   1.000
    H329    H    0.66210   0.05980   0.64520   1.000
    H330    H    0.94020   0.60230   0.31187   1.000
    H331    H    0.39770   0.33790   0.97853   1.000
    H332    H    0.94020   0.33790   0.52147   1.000
    H333    H    0.39770   0.05980   0.85480   1.000
    H334    H    0.66210   0.60230   0.18813   1.000
    H335    H    0.05980   0.66210   0.02147   1.000
    H336    H    0.60230   0.94020   0.35480   1.000
    H337    H    0.33790   0.39770   0.68813   1.000
    H338    H    0.05000   0.26970   0.71327   1.000
    H339    H    0.73030   0.78030   0.37993   1.000
    H340    H    0.78030   0.05000   0.54660   1.000
    H341    H    0.95000   0.73030   0.21327   1.000
    H342    H    0.26970   0.21970   0.87993   1.000
    H343    H    0.95000   0.21970   0.62007   1.000
    H344    H    0.26970   0.05000   0.95340   1.000
    H345    H    0.78030   0.73030   0.28673   1.000
    H346    H    0.05000   0.78030   0.12007   1.000
    H347    H    0.73030   0.95000   0.45340   1.000
    H348    H    0.05980   0.27670   0.61587   1.000
    H349    H    0.21690   0.94020   0.94920   1.000
    H350    H    0.72330   0.78310   0.28253   1.000
    H351    H    0.94020   0.72330   0.11587   1.000
    H352    H    0.78310   0.05980   0.44920   1.000
    H353    H    0.27670   0.21690   0.78253   1.000
    H354    H    0.14950   0.29900   0.74997   1.000
    H355    H    0.70100   0.85050   0.41663   1.000
    H356    H    0.85050   0.14950   0.58330   1.000
    H357    H    0.85050   0.70100   0.24997   1.000
    H358    H    0.29900   0.14950   0.91663   1.000
    H359    H    0.14960   0.46560   0.75907   1.000
    H360    H    0.53440   0.68400   0.42573   1.000
    H361    H    0.68400   0.14960   0.59240   1.000
    H362    H    0.85040   0.53440   0.25907   1.000
    H363    H    0.46560   0.31600   0.92573   1.000
    H364    H    0.85040   0.31600   0.57427   1.000
    H365    H    0.46560   0.14960   0.90760   1.000
    H366    H    0.68400   0.53440   0.24093   1.000
    H367    H    0.14960   0.68400   0.07427   1.000
    H368    H    0.53440   0.85040   0.40760   1.000
    H369    H    0.31600   0.46560   0.74093   1.000
    H370    H    0.21580   0.56130   0.79627   1.000
    H371    H    0.43870   0.65450   0.46293   1.000
    H372    H    0.65450   0.21580   0.62960   1.000
    H373    H    0.78420   0.43870   0.29627   1.000
    H374    H    0.56130   0.34550   0.96293   1.000
    H375    H    0.78420   0.34550   0.53707   1.000
    H376    H    0.56130   0.21580   0.87040   1.000
    H377    H    0.65450   0.43870   0.20373   1.000
    H378    H    0.21580   0.65450   0.03707   1.000
    H379    H    0.43870   0.78420   0.37040   1.000
    H380    H    0.34550   0.56130   0.70373   1.000
    H381    H    0.27140   0.67210   0.79587   1.000
    H382    H    0.32790   0.59930   0.46253   1.000
    H383    H    0.59930   0.27140   0.62920   1.000
    H384    H    0.72860   0.32790   0.29587   1.000
    H385    H    0.67210   0.40070   0.96253   1.000
    H386    H    0.72860   0.40070   0.53747   1.000
    H387    H    0.67210   0.27140   0.87080   1.000
    H388    H    0.59930   0.32790   0.20413   1.000
    H389    H    0.27140   0.59930   0.03747   1.000
    H390    H    0.32790   0.72860   0.37080   1.000
    H391    H    0.40070   0.67210   0.70413   1.000
    H392    H    0.35390   0.76770   0.81897   1.000
    H393    H    0.23230   0.58620   0.48563   1.000
    H394    H    0.58620   0.35390   0.65230   1.000
    H395    H    0.64610   0.23230   0.31897   1.000
    H396    H    0.76770   0.41380   0.98563   1.000
    H397    H    0.64610   0.41380   0.51437   1.000
    H398    H    0.76770   0.35390   0.84770   1.000
    H399    H    0.58620   0.23230   0.18103   1.000
    H400    H    0.35390   0.58620   0.01437   1.000
    H401    H    0.23230   0.64610   0.34770   1.000
    H402    H    0.41380   0.76770   0.68103   1.000
    H403    H    0.41060   0.87860   0.82097   1.000
    H404    H    0.12140   0.53200   0.48763   1.000
    H405    H    0.53200   0.41060   0.65430   1.000
    H406    H    0.58940   0.12140   0.32097   1.000
    H407    H    0.87860   0.46800   0.98763   1.000
    H408    H    0.58940   0.46800   0.51237   1.000
    H409    H    0.87860   0.41060   0.84570   1.000
    H410    H    0.53200   0.12140   0.17903   1.000
    H411    H    0.41060   0.53200   0.01237   1.000
    H412    H    0.12140   0.58940   0.34570   1.000
    H413    H    0.46800   0.87860   0.67903   1.000
loop_
    _geom_bond_atom_site_label_1
    _geom_bond_atom_site_label_2
    _geom_bond_distance
    _geom_bond_site_symmetry_2
    _ccdc_geom_bond_type
    H287   C53       0.93088  1_554   S
    H298   C64       0.92939  1_554   S
    H411   C255      0.93067      .   S
    H400   C242      0.93061      .   S
    H324   C114      0.92904      .   S
    H258   C16       0.92861      .   S
    H335   C126      0.93102      .   S
    H261   C0        0.93075      .   S
    C68    C57       1.38775      .   S
    C68    C79       1.38355      .   S
    C68    H302      0.92939  1_554   S
    C57    C34       1.36612      .   S
    C57    H291      0.93088  1_554   S
    H378   C210      0.92985      .   S
    H389   C221      0.92920      .   S
    C114   C126      1.39919  1_655   S
    C114   C103      1.38380      .   S
    C255   C242      1.39195      .   S
    C255   C23       1.41903      .   S
    C126   C137      1.38190      .   S
    C242   C21       1.39247      .   S
    H264   C5        0.92975      .   S
    H265   C6        0.93101      .   S
    C16    C0        1.35792      .   S
    C16    C15       1.40903      .   S
    C0     C19       1.38605      .   S
    C210   C221      1.39465      .   S
    C210   C11       1.38375      .   S
    C221   C20       1.37742      .   S
    C5     C6        1.37854  1_565   S
    C5     C4        1.38866      .   S
    C103   C79       1.49494      .   S
    C103   C159      1.38913      .   S
    C79    C92       1.38605      .   S
    C6     C1        1.38913      .   S
    C34    C45       1.40903      .   S
    C137   C170      1.47661      .   S
    C137   C148      1.38866      .   S
    H367   C186      0.92949      .   S
    C170   C186      1.39445      .   S
    C170   C8        1.39741      .   S
    C186   C10       1.40132      .   S
    C11    C10       1.49796      .   S
    C11    C12       1.38476      .   S
    C10    C9        1.40152      .   S
    C20    C21       1.48338      .   S
    C20    C13       1.37843      .   S
    C21    C22       1.39398      .   S
    C8     H266      0.92836      .   S
    C8     C7        1.39762      .   S
    C23    C24       1.42056      .   S
    C9     C7        1.39445      .   S
    C9     H267      0.92949      .   S
    C7     C4        1.47661      .   S
    C4     C3        1.38190      .   S
    C15    C17       1.36612      .   S
    C159   C148      1.37854  1_655   S
    C159   H351      0.93101      .   S
    C19    C1        1.49494      .   S
    C19    C18       1.38355      .   S
    C1     C2        1.38380      .   S
    C148   H346      0.92975      .   S
    C13    C12       1.39465      .   S
    C13    H269      0.92920      .   S
    C12    H268      0.92985      .   S
    C92    C45       1.35792      .   S
    C92    H313      0.93075      .   S
    C45    H280      0.92861      .   S
    C22    C24       1.39195      .   S
    C22    H270      0.93061      .   S
    C3     C2        1.39919  1_565   S
    C3     H263      0.93102      .   S
    C24    H271      0.93067      .   S
    C2     H262      0.92904      .   S
    C17    C18       1.38775      .   S
    C17    H259      0.93088      .   S
    C18    H260      0.92939      .   S
    H301   C67       0.92939      .   S
    H290   C56       0.93088      .   S
    H410   C254      0.93067      .   S
    H399   C241      0.93061      .   S
    H323   C113      0.92904      .   S
    H275   C40       0.92861      .   S
    H334   C125      0.93102      .   S
    H308   C85       0.93075      .   S
    C67    C56       1.38775      .   S
    C67    C78       1.38355      .   S
    C56    C33       1.36612      .   S
    H377   C209      0.92985      .   S
    H388   C220      0.92920      .   S
    C113   C125      1.39919      .   S
    C113   C102      1.38380      .   S
    C254   C241      1.39195      .   S
    C254   C245      1.41925      .   S
    C125   C136      1.38190      .   S
    C241   C232      1.39269      .   S
    H341   C143      0.92975      .   S
    H193   C154      0.93101      .   S
    C40    C85       1.35792      .   S
    C40    C29       1.40903      .   S
    C85    C74       1.38605      .   S
    C209   C220      1.39465      .   S
    C209   C200      1.38389      .   S
    C220   C227      1.37757      .   S
    C143   C154      1.37854  1_655   S
    C143   C132      1.38866      .   S
    C102   C78       1.49494      .   S
    C102   C158      1.38913      .   S
    C78    C91       1.38605      .   S
    C154   C98       1.38913      .   S
    C33    C44       1.40903      .   S
    C136   C169      1.47661      .   S
    C136   C147      1.38866      .   S
    H366   C185      0.92949      .   S
    C169   C185      1.39445      .   S
    C169   C176      1.39744      .   S
    C185   C195      1.40135      .   S
    C245   C250      1.42056      .   S
    C195   C200      1.49796      .   S
    C195   C181      1.40152      .   S
    C176   H357      0.92836      .   S
    C176   C165      1.39762      .   S
    C232   C227      1.48338      .   S
    C232   C237      1.39398      .   S
    C227   C216      1.37843      .   S
    C200   C205      1.38476      .   S
    C181   C165      1.39445      .   S
    C181   H362      0.92949      .   S
    C165   C132      1.47661      .   S
    C132   C121      1.38190      .   S
    C29    C52       1.36612      .   S
    C158   C147      1.37854      .   S
    C158   H350      0.93101      .   S
    C74    C98       1.49494      .   S
    C74    C63       1.38355      .   S
    C98    C109      1.38380      .   S
    C147   H345      0.92975      .   S
    C216   C205      1.39465      .   S
    C216   H384      0.92920      .   S
    C205   H373      0.92985      .   S
    C91    C44       1.35792      .   S
    C91    H312      0.93075      .   S
    C44    H279      0.92861      .   S
    C237   C250      1.39195      .   S
    C237   H395      0.93061      .   S
    C121   C109      1.39919  1_655   S
    C121   H330      0.93102      .   S
    C250   H406      0.93067      .   S
    C109   H319      0.92904      .   S
    C52    C63       1.38775      .   S
    C52    H286      0.93088      .   S
    C63    H297      0.92939      .   S
    H303   C69       0.92939      .   S
    H292   C58       0.93088      .   S
    H412   C256      0.93067      .   S
    H401   C243      0.93061      .   S
    H325   C115      0.92904      .   S
    H273   C38       0.92861      .   S
    H336   C127      0.93102      .   S
    H306   C83       0.93075      .   S
    C69    C58       1.38775      .   S
    C69    C80       1.38355      .   S
    C58    C35       1.36612      .   S
    H379   C211      0.92985      .   S
    H390   C222      0.92920      .   S
    C115   C127      1.39919  1_545   S
    C115   C104      1.38380      .   S
    C256   C243      1.39195      .   S
    C256   C118      1.41903      .   S
    C127   C138      1.38190      .   S
    C243   C230      1.39247      .   S
    H339   C141      0.92975      .   S
    H191   C152      0.93101      .   S
    C38    C83       1.35792      .   S
    C38    C27       1.40903      .   S
    C83    C72       1.38605      .   S
    C211   C222      1.39465      .   S
    C211   C198      1.38375      .   S
    C222   C225      1.37742      .   S
    C141   C152      1.37854      .   S
    C141   C130      1.38866      .   S
    C104   C80       1.49494      .   S
    C104   C160      1.38913      .   S
    C80    C93       1.38605      .   S
    C152   C96       1.38913      .   S
    C35    C46       1.40903      .   S
    C138   C171      1.47661      .   S
    C138   C149      1.38866      .   S
    H368   C187      0.92949      .   S
    C171   C187      1.39445      .   S
    C171   C174      1.39741      .   S
    C187   C88       1.40132      .   S
    C174   H355      0.92836      .   S
    C174   C163      1.39762      .   S
    C230   C225      1.48338      .   S
    C230   C235      1.39398      .   S
    C118   C248      1.42056      .   S
    C225   C214      1.37843      .   S
    C88    C198      1.49796      .   S
    C88    C179      1.40152      .   S
    C198   C203      1.38476      .   S
    C179   C163      1.39445      .   S
    C179   H360      0.92949      .   S
    C163   C130      1.47661      .   S
    C130   C51       1.38190      .   S
    C27    C49       1.36612      .   S
    C160   C149      1.37854  1_545   S
    C160   H352      0.93101      .   S
    C72    C96       1.49494      .   S
    C72    C61       1.38355      .   S
    C96    C107      1.38380      .   S
    C149   H347      0.92975      .   S
    C214   C203      1.39465      .   S
    C214   H382      0.92920      .   S
    C203   H371      0.92985      .   S
    C93    C46       1.35792      .   S
    C93    H314      0.93075      .   S
    C46    H281      0.92861      .   S
    C235   C248      1.39195      .   S
    C235   H393      0.93061      .   S
    C51    C107      1.39919      .   S
    C51    H328      0.93102      .   S
    C248   H404      0.93067      .   S
    C107   H317      0.92904      .   S
    C49    C61       1.38775      .   S
    C49    H284      0.93088      .   S
    C61    H295      0.92939      .   S
    H299   C65       0.92939      .   S
    H288   C54       0.93088      .   S
    H408   C252      0.93067      .   S
    H397   C239      0.93061      .   S
    H321   C111      0.92904      .   S
    H274   C39       0.92861      .   S
    H332   C123      0.93102      .   S
    H307   C84       0.93075      .   S
    C65    C54       1.38775      .   S
    C65    C76       1.38355      .   S
    C54    C31       1.36612      .   S
    H375   C207      0.92985      .   S
    H386   C218      0.92920      .   S
    C111   C123      1.39919  1_455   S
    C111   C100      1.38380      .   S
    C252   C239      1.39195      .   S
    C252   C119      1.41903      .   S
    C123   C134      1.38190      .   S
    C239   C231      1.39247      .   S
    H340   C142      0.92975      .   S
    H192   C153      0.93101      .   S
    C39    C84       1.35792      .   S
    C39    C28       1.40903      .   S
    C84    C73       1.38605      .   S
    C207   C218      1.39465      .   S
    C207   C199      1.38375      .   S
    C218   C226      1.37742      .   S
    C142   C153      1.37854  1_545   S
    C142   C131      1.38866      .   S
    C100   C76       1.49494      .   S
    C100   C156      1.38913      .   S
    C76    C14       1.38605      .   S
    C153   C97       1.38913      .   S
    C31    C42       1.40903      .   S
    C134   C167      1.47661      .   S
    C134   C145      1.38866      .   S
    H364   C183      0.92949      .   S
    C167   C183      1.39445      .   S
    C167   C175      1.39741      .   S
    C183   C89       1.40132      .   S
    C175   H356      0.92836      .   S
    C175   C164      1.39762      .   S
    C119   C249      1.42056      .   S
    C89    C199      1.49796      .   S
    C89    C180      1.40152      .   S
    C231   C226      1.48338      .   S
    C231   C236      1.39398      .   S
    C226   C215      1.37843      .   S
    C199   C204      1.38476      .   S
    C180   C164      1.39445      .   S
    C180   H361      0.92949      .   S
    C164   C131      1.47661      .   S
    C131   C120      1.38190      .   S
    C28    C25       1.36612      .   S
    C156   C145      1.37854  1_455   S
    C156   H348      0.93101      .   S
    C73    C97       1.49494      .   S
    C73    C62       1.38355      .   S
    C97    C108      1.38380      .   S
    C145   H343      0.92975      .   S
    C215   C204      1.39465      .   S
    C215   H383      0.92920      .   S
    C204   H372      0.92985      .   S
    C14    C42       1.35792      .   S
    C14    H310      0.93075      .   S
    C42    H277      0.92861      .   S
    C236   C249      1.39195      .   S
    C236   H394      0.93061      .   S
    C120   C108      1.39919  1_545   S
    C120   H329      0.93102      .   S
    C249   H405      0.93067      .   S
    C108   H318      0.92904      .   S
    C25    C62       1.38775      .   S
    C25    H285      0.93088      .   S
    C62    H296      0.92939      .   S
    H304   C70       0.92939      .   S
    H293   C59       0.93088      .   S
    H413   C257      0.93067      .   S
    H402   C244      0.93061      .   S
    H326   C116      0.92904      .   S
    H272   C37       0.92861      .   S
    H337   C128      0.93102      .   S
    H305   C82       0.93075      .   S
    C70    C59       1.38775      .   S
    C70    C81       1.38355      .   S
    C59    C36       1.36612      .   S
    H380   C212      0.92985      .   S
    H391   C223      0.92920      .   S
    C116   C128      1.39919      .   S
    C116   C105      1.38380      .   S
    C257   C244      1.39195      .   S
    C257   C117      1.41925      .   S
    C128   C139      1.38190      .   S
    C244   C229      1.39269      .   S
    H338   C140      0.92975      .   S
    H190   C151      0.93101      .   S
    C37    C82       1.35792      .   S
    C37    C26       1.40903      .   S
    C82    C71       1.38605      .   S
    C212   C223      1.39465      .   S
    C212   C197      1.38389      .   S
    C223   C224      1.37757      .   S
    C140   C151      1.37854  1_455   S
    C140   C129      1.38866      .   S
    C105   C81       1.49494      .   S
    C105   C161      1.38913      .   S
    C81    C94       1.38605      .   S
    C151   C95       1.38913      .   S
    C36    C47       1.40903      .   S
    C139   C172      1.47661      .   S
    C139   C150      1.38866      .   S
    H369   C188      0.92949      .   S
    C172   C188      1.39445      .   S
    C172   C173      1.39744      .   S
    C188   C87       1.40135      .   S
    C224   C229      1.48338      .   S
    C224   C213      1.37843      .   S
    C229   C234      1.39398      .   S
    C117   C247      1.42056      .   S
    C173   H354      0.92836      .   S
    C173   C162      1.39762      .   S
    C197   C87       1.49796      .   S
    C197   C202      1.38476      .   S
    C87    C178      1.40152      .   S
    C178   C162      1.39445      .   S
    C178   H359      0.92949      .   S
    C162   C129      1.47661      .   S
    C129   C50       1.38190      .   S
    C26    C48       1.36612      .   S
    C161   C150      1.37854      .   S
    C161   H353      0.93101      .   S
    C71    C95       1.49494      .   S
    C71    C60       1.38355      .   S
    C95    C106      1.38380      .   S
    C150   H189      0.92975      .   S
    C213   C202      1.39465      .   S
    C213   H381      0.92920      .   S
    C202   H370      0.92985      .   S
    C94    C47       1.35792      .   S
    C94    H315      0.93075      .   S
    C47    H282      0.92861      .   S
    C234   C247      1.39195      .   S
    C234   H392      0.93061      .   S
    C50    C106      1.39919  1_455   S
    C50    H327      0.93102      .   S
    C247   H403      0.93067      .   S
    C106   H316      0.92904      .   S
    C48    C60       1.38775      .   S
    C48    H283      0.93088      .   S
    C60    H294      0.92939      .   S
    H300   C66       0.92939      .   S
    H289   C55       0.93088      .   S
    H409   C253      0.93067      .   S
    H398   C240      0.93061      .   S
    H322   C112      0.92904      .   S
    H276   C41       0.92861      .   S
    H333   C124      0.93102      .   S
    H309   C86       0.93075      .   S
    C66    C55       1.38775      .   S
    C66    C77       1.38355      .   S
    C55    C32       1.36612      .   S
    H376   C208      0.92985      .   S
    H387   C219      0.92920      .   S
    C112   C124      1.39919  1_565   S
    C112   C101      1.38380      .   S
    C253   C240      1.39195      .   S
    C253   C246      1.41903      .   S
    C124   C135      1.38190      .   S
    C240   C233      1.39247      .   S
    H342   C144      0.92975      .   S
    H194   C155      0.93101      .   S
    C41    C86       1.35792      .   S
    C41    C30       1.40903      .   S
    C86    C75       1.38605      .   S
    C208   C219      1.39465      .   S
    C208   C201      1.38375      .   S
    C219   C228      1.37742      .   S
    C144   C155      1.37854      .   S
    C144   C133      1.38866      .   S
    C101   C77       1.49494      .   S
    C101   C157      1.38913      .   S
    C77    C90       1.38605      .   S
    C155   C99       1.38913      .   S
    C32    C43       1.40903      .   S
    C135   C168      1.47661      .   S
    C135   C146      1.38866      .   S
    H365   C184      0.92949      .   S
    C168   C184      1.39445      .   S
    C168   C177      1.39741      .   S
    C184   C196      1.40132      .   S
    C196   C201      1.49796      .   S
    C196   C182      1.40152      .   S
    C201   C206      1.38476      .   S
    C177   H358      0.92836      .   S
    C177   C166      1.39762      .   S
    C246   C251      1.42056      .   S
    C228   C233      1.48338      .   S
    C228   C217      1.37843      .   S
    C233   C238      1.39398      .   S
    C182   C166      1.39445      .   S
    C182   H363      0.92949      .   S
    C166   C133      1.47661      .   S
    C133   C122      1.38190      .   S
    C30    C53       1.36612      .   S
    C157   C146      1.37854  1_565   S
    C157   H349      0.93101      .   S
    C75    C99       1.49494      .   S
    C75    C64       1.38355      .   S
    C99    C110      1.38380      .   S
    C146   H344      0.92975      .   S
    C217   C206      1.39465      .   S
    C217   H385      0.92920      .   S
    C206   H374      0.92985      .   S
    C90    C43       1.35792      .   S
    C90    H311      0.93075      .   S
    C43    H278      0.92861      .   S
    C238   C251      1.39195      .   S
    C238   H396      0.93061      .   S
    C122   C110      1.39919      .   S
    C122   H331      0.93102      .   S
    C251   H407      0.93067      .   S
    C110   H320      0.92904      .   S
    C53    C64       1.38775      .   S
