# CIF file generated by openbabel 2.4.90, see http://openbabel.sf.net
data_I
_chemical_name_common ''
_cell_length_a 24.057
_cell_length_b 24.057
_cell_length_c 26.996
_cell_angle_alpha 90
_cell_angle_beta 90
_cell_angle_gamma 120
_space_group_name_H-M_alt 'P 1'
_space_group_name_Hall 'P 1'
loop_
    _symmetry_equiv_pos_as_xyz
    x,y,z
loop_
    _atom_site_label
    _atom_site_type_symbol
    _atom_site_fract_x
    _atom_site_fract_y
    _atom_site_fract_z
    _atom_site_occupancy
    C0      C    0.34584   0.85814   0.25773   1.000
    C1      C    0.48770   0.34584   0.09106   1.000
    C2      C    0.48159   0.51841   0.08330   1.000
    C3      C    0.53379   0.48932   0.92589   1.000
    C4      C    0.65416   0.14186   0.75773   1.000
    C5      C    0.85814   0.51230   0.42439   1.000
    C6      C    0.51230   0.65416   0.59106   1.000
    C7      C    0.14186   0.48770   0.92439   1.000
    C8      C    0.34584   0.48770   0.57561   1.000
    C9      C    0.14186   0.65416   0.90894   1.000
    C10     C    0.51230   0.85814   0.24227   1.000
    C11     C    0.65416   0.51230   0.07561   1.000
    C12     C    0.85814   0.34584   0.40894   1.000
    C13     C    0.48770   0.14186   0.74227   1.000
    C14     C    0.96318   0.48159   0.91663   1.000
    C15     C    0.48159   0.96318   0.74997   1.000
    C16     C    0.03682   0.51841   0.41663   1.000
    C17     C    0.51841   0.48159   0.58330   1.000
    C18     C    0.51841   0.03682   0.24997   1.000
    O19     O    0.49346   0.62481   0.63014   1.000
    O20     O    0.13135   0.50654   0.96347   1.000
    O21     O    0.37519   0.86865   0.29680   1.000
    O22     O    0.50654   0.37519   0.13014   1.000
    O23     O    0.86865   0.49346   0.46347   1.000
    O24     O    0.62481   0.13135   0.79680   1.000
    O25     O    0.50480   0.98951   0.70985   1.000
    O26     O    0.01049   0.51529   0.37651   1.000
    C27     C    0.51068   0.04447   0.59256   1.000
    C28     C    0.95553   0.46621   0.25922   1.000
    C29     C    0.46621   0.51068   0.42589   1.000
    C30     C    0.48932   0.95553   0.09256   1.000
    C31     C    0.04447   0.53379   0.75922   1.000
    C32     C    0.48932   0.53379   0.74078   1.000
    C33     C    0.04447   0.51068   0.07411   1.000
    C34     C    0.46621   0.95553   0.40744   1.000
    C35     C    0.51068   0.46621   0.24078   1.000
    C36     C    0.95553   0.48932   0.57411   1.000
    C37     C    0.53379   0.04447   0.90744   1.000
    O38     O    0.51184   0.43904   0.95077   1.000
    O39     O    0.49334   0.36941   0.04965   1.000
    O40     O    0.62481   0.49346   0.03653   1.000
    O41     O    0.48471   0.49520   0.04318   1.000
    O42     O    0.57690   0.54038   0.94039   1.000
    O43     O    0.56096   0.07280   0.61744   1.000
    O44     O    0.92720   0.48816   0.28410   1.000
    O45     O    0.48816   0.56096   0.45077   1.000
    O46     O    0.43904   0.92720   0.11744   1.000
    O47     O    0.07280   0.51184   0.78410   1.000
    O48     O    0.43904   0.51184   0.71590   1.000
    O49     O    0.07280   0.56096   0.04923   1.000
    O50     O    0.48816   0.92720   0.38256   1.000
    O51     O    0.56096   0.48816   0.21590   1.000
    O52     O    0.92720   0.43904   0.54923   1.000
    O53     O    0.51184   0.07280   0.88256   1.000
    O54     O    0.63059   0.12393   0.71632   1.000
    O55     O    0.87607   0.50666   0.38298   1.000
    O56     O    0.50666   0.63059   0.54965   1.000
    O57     O    0.36941   0.87607   0.21632   1.000
    O58     O    0.12393   0.49334   0.88298   1.000
    O59     O    0.36941   0.49334   0.61702   1.000
    O60     O    0.12393   0.63059   0.95035   1.000
    O61     O    0.50666   0.87607   0.28368   1.000
    O62     O    0.63059   0.50666   0.11702   1.000
    O63     O    0.87607   0.36941   0.45035   1.000
    O64     O    0.49334   0.12393   0.78368   1.000
    O65     O    0.50654   0.13135   0.70320   1.000
    O66     O    0.86865   0.37519   0.36986   1.000
    O67     O    0.37519   0.50654   0.53653   1.000
    O68     O    0.49346   0.86865   0.20320   1.000
    O69     O    0.13135   0.62481   0.86986   1.000
    O70     O    0.51529   0.50480   0.54318   1.000
    O71     O    0.49520   0.01049   0.20985   1.000
    O72     O    0.98951   0.48471   0.87651   1.000
    O73     O    0.49520   0.48471   0.62349   1.000
    O74     O    0.98951   0.50480   0.95682   1.000
    O75     O    0.51529   0.01049   0.29015   1.000
    O76     O    0.50480   0.51529   0.12349   1.000
    O77     O    0.01049   0.49520   0.45682   1.000
    O78     O    0.48471   0.98951   0.79015   1.000
    O79     O    0.45962   0.03652   0.60706   1.000
    O80     O    0.96348   0.42310   0.27372   1.000
    O81     O    0.42310   0.45962   0.44039   1.000
    O82     O    0.54038   0.96348   0.10706   1.000
    O83     O    0.03652   0.57690   0.77372   1.000
    O84     O    0.54038   0.57690   0.72628   1.000
    O85     O    0.03652   0.45962   0.05961   1.000
    O86     O    0.42310   0.96348   0.39294   1.000
    O87     O    0.45962   0.42310   0.22628   1.000
    O88     O    0.96348   0.54038   0.55961   1.000
    O89     O    0.57690   0.03652   0.89294   1.000
    Zn90    Zn   0.53463   0.45653   0.02073   1.000
    Zn91    Zn   0.54347   0.07810   0.68739   1.000
    Zn92    Zn   0.92190   0.46537   0.35406   1.000
    Zn93    Zn   0.46537   0.54347   0.52073   1.000
    Zn94    Zn   0.45653   0.92190   0.18739   1.000
    Zn95    Zn   0.07810   0.53463   0.85406   1.000
    Zn96    Zn   0.45653   0.53463   0.64594   1.000
    Zn97    Zn   0.07810   0.54347   0.97927   1.000
    Zn98    Zn   0.46537   0.92190   0.31261   1.000
    Zn99    Zn   0.54347   0.46537   0.14594   1.000
    Zn100   Zn   0.92190   0.45653   0.47927   1.000
    Zn101   Zn   0.53463   0.07810   0.81261   1.000
loop_
    _geom_bond_atom_site_label_1
    _geom_bond_atom_site_label_2
    _geom_bond_distance
    _geom_bond_site_symmetry_2
    _ccdc_geom_bond_type
    Zn90   O40       1.93659      .   S
    Zn90   O41       1.94735      .   S
    Zn90   O39       1.97660      .   S
    Zn90   O38       1.95292  1_554   S
    O40    C11       1.22351      .   S
    O41    C2        1.23789      .   S
    O49    C33       1.24673      .   S
    O49    Zn97      1.95292  1_554   S
    O39    C1        1.22992      .   S
    O85    C33       1.20984      .   S
    C11    O62       1.22992      .   S
    C2     O76       1.23954      .   S
    C1     O22       1.22351      .   S
    C30    O82       1.20984      .   S
    C30    O46       1.24673      .   S
    O62    Zn99      1.97660      .   S
    O46    Zn94      1.95266      .   S
    O76    Zn99      1.94735      .   S
    O22    Zn99      1.93659      .   S
    Zn99   O51       1.95292      .   S
    Zn94   O68       1.93665      .   S
    Zn94   O71       1.94743  1_565   S
    Zn94   O57       1.97670      .   S
    O68    C10       1.22328      .   S
    O71    C18       1.23789      .   S
    O51    C35       1.24673      .   S
    O57    C0        1.22992      .   S
    O87    C35       1.20984      .   S
    C10    O61       1.22992      .   S
    C18    O75       1.23931      .   S
    C0     O21       1.22328      .   S
    C28    O80       1.20984      .   S
    C28    O44       1.24673      .   S
    O61    Zn98      1.97670      .   S
    O44    Zn92      1.95292      .   S
    O75    Zn98      1.94743  1_545   S
    O21    Zn98      1.93665      .   S
    Zn98   O50       1.95266      .   S
    Zn92   O66       1.93659      .   S
    Zn92   O26       1.94735  1_655   S
    Zn92   O55       1.97660      .   S
    O66    C12       1.22351      .   S
    O26    C16       1.23789      .   S
    O50    C34       1.24673      .   S
    O55    C5        1.22992      .   S
    O86    C34       1.20984      .   S
    C12    O63       1.22992      .   S
    C16    O77       1.23954      .   S
    C5     O23       1.22351      .   S
    C29    O81       1.20984      .   S
    C29    O45       1.24673      .   S
    O63    Zn100     1.97660      .   S
    O45    Zn93      1.95292      .   S
    O77    Zn100     1.94735  1_455   S
    O23    Zn100     1.93659      .   S
    Zn100  O52       1.95292      .   S
    Zn93   O67       1.93659      .   S
    Zn93   O70       1.94735      .   S
    Zn93   O56       1.97660      .   S
    O67    C8        1.22351      .   S
    O70    C17       1.23789      .   S
    O52    C36       1.24673      .   S
    O56    C6        1.22992      .   S
    O88    C36       1.20984      .   S
    C8     O59       1.22992      .   S
    C17    O73       1.23954      .   S
    C6     O19       1.22351      .   S
    C27    O79       1.20984      .   S
    C27    O43       1.24673      .   S
    O59    Zn96      1.97660      .   S
    O43    Zn91      1.95266      .   S
    O73    Zn96      1.94735      .   S
    O19    Zn96      1.93659      .   S
    Zn96   O48       1.95292      .   S
    Zn91   O65       1.93665      .   S
    Zn91   O25       1.94743  1_545   S
    Zn91   O54       1.97670      .   S
    O65    C13       1.22328      .   S
    O25    C15       1.23789      .   S
    O48    C32       1.24673      .   S
    O54    C4        1.22992      .   S
    O84    C32       1.20984      .   S
    C13    O64       1.22992      .   S
    C15    O78       1.23931      .   S
    C4     O24       1.22328      .   S
    C31    O83       1.20984      .   S
    C31    O47       1.24673      .   S
    O64    Zn101     1.97670      .   S
    O47    Zn95      1.95292      .   S
    O78    Zn101     1.94743  1_565   S
    O24    Zn101     1.93665      .   S
    Zn101  O53       1.95266      .   S
    Zn95   O69       1.93659      .   S
    Zn95   O72       1.94735  1_455   S
    Zn95   O58       1.97660      .   S
    O69    C9        1.22351      .   S
    O72    C14       1.23789      .   S
    O53    C37       1.24673      .   S
    O58    C7        1.22992      .   S
    O89    C37       1.20984      .   S
    C9     O60       1.22992      .   S
    C14    O74       1.23954      .   S
    C7     O20       1.22351      .   S
    C3     O42       1.20984      .   S
    C3     O38       1.24673      .   S
    O60    Zn97      1.97660      .   S
    O74    Zn97      1.94735  1_655   S
    O20    Zn97      1.93659      .   S
