# CIF file generated by openbabel 2.4.90, see http://openbabel.sf.net
data_I
_chemical_name_common ''
_cell_length_a 24.057
_cell_length_b 24.057
_cell_length_c 26.996
_cell_angle_alpha 90
_cell_angle_beta 90
_cell_angle_gamma 120
_space_group_name_H-M_alt 'P 1'
_space_group_name_Hall 'P 1'
loop_
    _symmetry_equiv_pos_as_xyz
    x,y,z
loop_
    _atom_site_label
    _atom_site_type_symbol
    _atom_site_fract_x
    _atom_site_fract_y
    _atom_site_fract_z
    _atom_site_occupancy
    N0      N    0.00000   0.46279   0.66667   1.000
    N1      N    0.20658   0.41317   0.75000   1.000
    N2      N    0.20658   0.79342   0.08333   1.000
    N3      N    0.41317   0.20658   0.91666   1.000
    N4      N    0.79342   0.20658   0.58333   1.000
    N5      N    0.79342   0.58683   0.25000   1.000
    N6      N    0.53721   0.00000   0.50000   1.000
    N7      N    0.58683   0.79342   0.41666   1.000
    N8      N    0.46279   0.00000   1.00000   1.000
    N9      N    0.00000   0.53721   0.16667   1.000
    N10     N    0.46279   0.46279   0.83333   1.000
    N11     N    0.53721   0.53721   0.33333   1.000
    Zr12    Zr   0.46470   0.92940   0.25000   1.000
    O13     O    0.56309   0.82119   0.24766   1.000
    O14     O    0.56478   0.87957   0.24999   1.000
    O15     O    0.50810   0.82119   0.25233   1.000
    O16     O    0.46961   0.95641   0.14181   1.000
    O17     O    0.48680   0.95641   0.35818   1.000
    Zr18    Zr   0.46470   0.53530   0.58333   1.000
    O19     O    0.50810   0.43691   0.58100   1.000
    O20     O    0.56478   0.43522   0.58332   1.000
    O21     O    0.56309   0.49190   0.58567   1.000
    O22     O    0.46961   0.51320   0.69152   1.000
    O23     O    0.48680   0.53039   0.47515   1.000
    Zr24    Zr   0.92940   0.46470   0.41666   1.000
    O25     O    0.87957   0.56478   0.41665   1.000
    O26     O    0.82119   0.50810   0.41433   1.000
    O27     O    0.95641   0.48680   0.30848   1.000
    O28     O    0.95641   0.46961   0.52485   1.000
    O29     O    0.82119   0.56309   0.41900   1.000
    Zr30    Zr   0.53530   0.07060   0.75000   1.000
    O31     O    0.43522   0.12043   0.74999   1.000
    O32     O    0.43691   0.17881   0.74766   1.000
    O33     O    0.53039   0.04359   0.64181   1.000
    O34     O    0.51320   0.04359   0.85818   1.000
    O35     O    0.49190   0.17881   0.75233   1.000
    Zr36    Zr   0.07060   0.53530   0.91666   1.000
    O37     O    0.17881   0.43691   0.91900   1.000
    O38     O    0.17881   0.49190   0.91433   1.000
    O39     O    0.04359   0.51320   0.80848   1.000
    O40     O    0.12043   0.43522   0.91665   1.000
    O41     O    0.04359   0.53039   0.02485   1.000
    Zr42    Zr   0.53530   0.46470   0.08333   1.000
    O43     O    0.43691   0.50810   0.08567   1.000
    O44     O    0.53039   0.48680   0.19152   1.000
    O45     O    0.43522   0.56478   0.08332   1.000
    O46     O    0.49190   0.56309   0.08100   1.000
    O47     O    0.51320   0.46961   0.97515   1.000
loop_
    _geom_bond_atom_site_label_1
    _geom_bond_atom_site_label_2
    _geom_bond_distance
    _geom_bond_site_symmetry_2
    _ccdc_geom_bond_type
    Zr12   O13       4.30636      .   S
    N5     O13       9.68153      .   S
    Zr12   O14       3.18127      .   S
    N5     O14      10.88951      .   S
    Zr12   O15       3.25397      .   S
    N5     O15      10.84441      .   S
    Zr12   O16       2.98151      .   S
    N8     O16       3.99446  1_546   S
    Zr12   O17       2.98150      .   S
    N6     O17       3.99434  1_545   S
    Zr18   O19       3.02793      .   S
    N4     O19      10.76340      .   S
    Zr18   O20       4.17038      .   S
    N4     O20       9.52661      .   S
    Zr18   O21       3.02793      .   S
    N4     O21      10.76340      .   S
    Zr18   O22       2.98157      .   S
    N10    O22       3.99439      .   S
    Zr18   O23       2.98152      .   S
    N11    O23       3.99435      .   S
    Zr24   O25       3.18127      .   S
    N7     O25      10.88951      .   S
    Zr24   O26       3.25397      .   S
    N7     O26      10.84441      .   S
    Zr24   O27       2.98151      .   S
    N9     O27       3.99434  1_455   S
    Zr24   O28       2.98157      .   S
    N0     O28       3.99440  1_455   S
    Zr24   O29       4.30636      .   S
    N7     O29       9.68153      .   S
    Zr30   O31       3.18127      .   S
    N1     O31      10.88951      .   S
    Zr30   O32       4.30636      .   S
    N1     O32       9.68153      .   S
    Zr30   O33       2.98151      .   S
    N6     O33       3.99446      .   S
    Zr30   O34       2.98150      .   S
    N8     O34       3.99434      .   S
    Zr30   O35       3.25397      .   S
    N1     O35      10.84441      .   S
    Zr36   O37       4.30636      .   S
    N3     O37       9.68153      .   S
    Zr36   O38       3.25397      .   S
    N3     O38      10.84441      .   S
    Zr36   O39       2.98151      .   S
    N0     O39       3.99434      .   S
    Zr36   O40       3.18127      .   S
    N3     O40      10.88951      .   S
    Zr36   O41       2.98157  1_556   S
    N9     O41       3.99440      .   S
    Zr42   O43       3.02793      .   S
    N2     O43      10.76340      .   S
    Zr42   O44       2.98157      .   S
    N11    O44       3.99439      .   S
    Zr42   O45       4.17038      .   S
    N2     O45       9.52661      .   S
    Zr42   O46       3.02793      .   S
    N2     O46      10.76340      .   S
    Zr42   O47       2.98152  1_554   S
    N10    O47       3.99435      .   S
