# CIF file generated by openbabel 2.4.90, see http://openbabel.sf.net
data_I
_chemical_name_common ''
_cell_length_a 21.8827
_cell_length_b 21.8827
_cell_length_c 21.8827
_cell_angle_alpha 90
_cell_angle_beta 90
_cell_angle_gamma 90
_space_group_name_H-M_alt 'P 1'
_space_group_name_Hall 'P 1'
loop_
    _symmetry_equiv_pos_as_xyz
    x,y,z
loop_
    _atom_site_label
    _atom_site_type_symbol
    _atom_site_fract_x
    _atom_site_fract_y
    _atom_site_fract_z
    _atom_site_occupancy
    O0      O    0.20410   0.34985   0.66800   1.000
    O1      O    0.22500   0.62535   0.76490   1.000
    O2      O    0.24470   0.39254   0.75233   1.000
    O3      O    0.18810   0.67056   0.68180   1.000
    C4      C    0.22150   0.39510   0.69940   1.000
    C5      C    0.21700   0.51050   0.70440   1.000
    H6      H    0.22327   0.50853   0.74642   1.000
    C7      C    0.21550   0.45720   0.67030   1.000
    C8      C    0.20860   0.62490   0.71050   1.000
    C9      C    0.20920   0.56690   0.67630   1.000
    C10     C    0.20890   0.46020   0.60810   1.000
    H11     H    0.20765   0.42441   0.58511   1.000
    N12     N    0.20220   0.52380   0.51410   1.000
    C13     C    0.20410   0.51590   0.57970   1.000
    C14     C    0.20320   0.56950   0.61290   1.000
    H15     H    0.19864   0.60686   0.59323   1.000
    O16     O    0.79590   0.65015   0.66800   1.000
    O17     O    0.79590   0.34985   0.33200   1.000
    O18     O    0.20410   0.65015   0.33200   1.000
    O19     O    0.66800   0.20410   0.34985   1.000
    O20     O    0.66800   0.79590   0.65015   1.000
    O21     O    0.33200   0.79590   0.34985   1.000
    O22     O    0.33200   0.20410   0.65015   1.000
    O23     O    0.34985   0.66800   0.20410   1.000
    O24     O    0.65015   0.66800   0.79590   1.000
    O25     O    0.34985   0.33200   0.79590   1.000
    O26     O    0.65015   0.33200   0.20410   1.000
    O27     O    0.84985   0.70410   0.16800   1.000
    O28     O    0.15015   0.29590   0.16800   1.000
    O29     O    0.84985   0.29590   0.83200   1.000
    O30     O    0.15015   0.70410   0.83200   1.000
    O31     O    0.70410   0.16800   0.84985   1.000
    O32     O    0.29590   0.16800   0.15015   1.000
    O33     O    0.29590   0.83200   0.84985   1.000
    O34     O    0.70410   0.83200   0.15015   1.000
    O35     O    0.16800   0.84985   0.70410   1.000
    O36     O    0.16800   0.15015   0.29590   1.000
    O37     O    0.83200   0.84985   0.29590   1.000
    O38     O    0.83200   0.15015   0.70410   1.000
    O39     O    0.77500   0.37465   0.76490   1.000
    O40     O    0.77500   0.62535   0.23510   1.000
    O41     O    0.22500   0.37465   0.23510   1.000
    O42     O    0.76490   0.22500   0.62535   1.000
    O43     O    0.76490   0.77500   0.37465   1.000
    O44     O    0.23510   0.77500   0.62535   1.000
    O45     O    0.23510   0.22500   0.37465   1.000
    O46     O    0.62535   0.76490   0.22500   1.000
    O47     O    0.37465   0.76490   0.77500   1.000
    O48     O    0.62535   0.23510   0.77500   1.000
    O49     O    0.37465   0.23510   0.22500   1.000
    O50     O    0.12535   0.72500   0.26490   1.000
    O51     O    0.87465   0.27500   0.26490   1.000
    O52     O    0.12535   0.27500   0.73510   1.000
    O53     O    0.87465   0.72500   0.73510   1.000
    O54     O    0.72500   0.26490   0.12535   1.000
    O55     O    0.27500   0.26490   0.87465   1.000
    O56     O    0.27500   0.73510   0.12535   1.000
    O57     O    0.72500   0.73510   0.87465   1.000
    O58     O    0.26490   0.12535   0.72500   1.000
    O59     O    0.26490   0.87465   0.27500   1.000
    O60     O    0.73510   0.12535   0.27500   1.000
    O61     O    0.73510   0.87465   0.72500   1.000
    O62     O    0.75530   0.60746   0.75233   1.000
    O63     O    0.75530   0.39254   0.24767   1.000
    O64     O    0.24470   0.60746   0.24767   1.000
    O65     O    0.75233   0.24470   0.39254   1.000
    O66     O    0.75233   0.75530   0.60746   1.000
    O67     O    0.24767   0.75530   0.39254   1.000
    O68     O    0.24767   0.24470   0.60746   1.000
    O69     O    0.39254   0.75233   0.24470   1.000
    O70     O    0.60746   0.75233   0.75530   1.000
    O71     O    0.39254   0.24767   0.75530   1.000
    O72     O    0.60746   0.24767   0.24470   1.000
    O73     O    0.89254   0.74470   0.25233   1.000
    H74     H    0.24642   0.00853   0.72327   1.000
    H75     H    0.24642   0.99147   0.27673   1.000
    O76     O    0.10746   0.25530   0.25233   1.000
    O77     O    0.89254   0.25530   0.74767   1.000
    O78     O    0.10746   0.74470   0.74767   1.000
    O79     O    0.74470   0.25233   0.89254   1.000
    O80     O    0.25530   0.25233   0.10746   1.000
    O81     O    0.25530   0.74767   0.89254   1.000
    O82     O    0.74470   0.74767   0.10746   1.000
    O83     O    0.25233   0.89254   0.74470   1.000
    O84     O    0.25233   0.10746   0.25530   1.000
    O85     O    0.74767   0.89254   0.25530   1.000
    O86     O    0.74767   0.10746   0.74470   1.000
    O87     O    0.81190   0.32944   0.68180   1.000
    O88     O    0.81190   0.67056   0.31820   1.000
    O89     O    0.18810   0.32944   0.31820   1.000
    O90     O    0.68180   0.18810   0.67056   1.000
    O91     O    0.68180   0.81190   0.32944   1.000
    O92     O    0.31820   0.81190   0.67056   1.000
    O93     O    0.31820   0.18810   0.32944   1.000
    O94     O    0.67056   0.68180   0.18810   1.000
    O95     O    0.32944   0.68180   0.81190   1.000
    O96     O    0.67056   0.31820   0.81190   1.000
    O97     O    0.32944   0.31820   0.18810   1.000
    O98     O    0.17056   0.68810   0.18180   1.000
    O99     O    0.82944   0.31190   0.18180   1.000
    O100    O    0.17056   0.31190   0.81820   1.000
    O101    O    0.82944   0.68810   0.81820   1.000
    O102    O    0.68810   0.18180   0.17056   1.000
    O103    O    0.31190   0.18180   0.82944   1.000
    C104    C    0.56690   0.32370   0.79080   1.000
    C105    C    0.43310   0.32370   0.20920   1.000
    C106    C    0.06690   0.70920   0.17630   1.000
    O107    O    0.31190   0.81820   0.17056   1.000
    O108    O    0.68810   0.81820   0.82944   1.000
    O109    O    0.18180   0.17056   0.68810   1.000
    O110    O    0.18180   0.82944   0.31190   1.000
    O111    O    0.81820   0.17056   0.31190   1.000
    O112    O    0.81820   0.82944   0.68810   1.000
    C113    C    0.77850   0.60490   0.69940   1.000
    C114    C    0.77850   0.39510   0.30060   1.000
    C115    C    0.22150   0.60490   0.30060   1.000
    C116    C    0.69940   0.22150   0.39510   1.000
    C117    C    0.69940   0.77850   0.60490   1.000
    C118    C    0.30060   0.77850   0.39510   1.000
    C119    C    0.30060   0.22150   0.60490   1.000
    C120    C    0.39510   0.69940   0.22150   1.000
    C121    C    0.60490   0.69940   0.77850   1.000
    C122    C    0.39510   0.30060   0.77850   1.000
    C123    C    0.60490   0.30060   0.22150   1.000
    C124    C    0.89510   0.72150   0.19940   1.000
    C125    C    0.10490   0.27850   0.19940   1.000
    C126    C    0.89510   0.27850   0.80060   1.000
    C127    C    0.10490   0.72150   0.80060   1.000
    C128    C    0.72150   0.19940   0.89510   1.000
    C129    C    0.27850   0.19940   0.10490   1.000
    C130    C    0.27850   0.80060   0.89510   1.000
    C131    C    0.72150   0.80060   0.10490   1.000
    C132    C    0.19940   0.89510   0.72150   1.000
    C133    C    0.19940   0.10490   0.27850   1.000
    C134    C    0.80060   0.89510   0.27850   1.000
    C135    C    0.80060   0.10490   0.72150   1.000
    C136    C    0.78300   0.48950   0.70440   1.000
    C137    C    0.78300   0.51050   0.29560   1.000
    C138    C    0.21700   0.48950   0.29560   1.000
    C139    C    0.70440   0.21700   0.51050   1.000
    C140    C    0.70440   0.78300   0.48950   1.000
    C141    C    0.29560   0.78300   0.51050   1.000
    C142    C    0.29560   0.21700   0.48950   1.000
    C143    C    0.51050   0.70440   0.21700   1.000
    C144    C    0.48950   0.70440   0.78300   1.000
    C145    C    0.51050   0.29560   0.78300   1.000
    C146    C    0.48950   0.29560   0.21700   1.000
    C147    C    0.01050   0.71700   0.20440   1.000
    C148    C    0.98950   0.28300   0.20440   1.000
    C149    C    0.01050   0.28300   0.79560   1.000
    C150    C    0.98950   0.71700   0.79560   1.000
    C151    C    0.71700   0.20440   0.01050   1.000
    C152    C    0.28300   0.20440   0.98950   1.000
    C153    C    0.28300   0.79560   0.01050   1.000
    C154    C    0.71700   0.79560   0.98950   1.000
    C155    C    0.20440   0.01050   0.71700   1.000
    C156    C    0.20440   0.98950   0.28300   1.000
    C157    C    0.79560   0.01050   0.28300   1.000
    C158    C    0.79560   0.98950   0.71700   1.000
    H159    H    0.77673   0.49147   0.74642   1.000
    H160    H    0.77673   0.50853   0.25358   1.000
    H161    H    0.22327   0.49147   0.25358   1.000
    H162    H    0.74642   0.22327   0.50853   1.000
    H163    H    0.74642   0.77673   0.49147   1.000
    H164    H    0.25358   0.77673   0.50853   1.000
    H165    H    0.25358   0.22327   0.49147   1.000
    H166    H    0.50853   0.74642   0.22327   1.000
    H167    H    0.49147   0.74642   0.77673   1.000
    H168    H    0.50853   0.25358   0.77673   1.000
    H169    H    0.49147   0.25358   0.22327   1.000
    H170    H    0.00853   0.72327   0.24642   1.000
    H171    H    0.99147   0.27673   0.24642   1.000
    H172    H    0.00853   0.27673   0.75358   1.000
    H173    H    0.99147   0.72327   0.75358   1.000
    H174    H    0.72327   0.24642   0.00853   1.000
    H175    H    0.27673   0.24642   0.99147   1.000
    H176    H    0.27673   0.75358   0.00853   1.000
    H177    H    0.72327   0.75358   0.99147   1.000
    H178    H    0.39314   0.40677   0.19864   1.000
    H179    H    0.10686   0.69864   0.09323   1.000
    H180    H    0.89314   0.30136   0.09323   1.000
    H181    H    0.10686   0.30136   0.90677   1.000
    H182    H    0.89314   0.69864   0.90677   1.000
    H183    H    0.69864   0.09323   0.10686   1.000
    H184    H    0.75358   0.00853   0.27673   1.000
    H185    H    0.75358   0.99147   0.72327   1.000
    C186    C    0.78450   0.54280   0.67030   1.000
    C187    C    0.78450   0.45720   0.32970   1.000
    C188    C    0.21550   0.54280   0.32970   1.000
    C189    C    0.67030   0.21550   0.45720   1.000
    C190    C    0.67030   0.78450   0.54280   1.000
    C191    C    0.32970   0.78450   0.45720   1.000
    C192    C    0.32970   0.21550   0.54280   1.000
    C193    C    0.45720   0.67030   0.21550   1.000
    C194    C    0.54280   0.67030   0.78450   1.000
    C195    C    0.45720   0.32970   0.78450   1.000
    C196    C    0.54280   0.32970   0.21550   1.000
    C197    C    0.95720   0.71550   0.17030   1.000
    C198    C    0.04280   0.28450   0.17030   1.000
    C199    C    0.95720   0.28450   0.82970   1.000
    C200    C    0.04280   0.71550   0.82970   1.000
    C201    C    0.71550   0.17030   0.95720   1.000
    C202    C    0.28450   0.17030   0.04280   1.000
    C203    C    0.28450   0.82970   0.95720   1.000
    C204    C    0.71550   0.82970   0.04280   1.000
    C205    C    0.17030   0.95720   0.71550   1.000
    C206    C    0.17030   0.04280   0.28450   1.000
    C207    C    0.82970   0.95720   0.28450   1.000
    C208    C    0.82970   0.04280   0.71550   1.000
    C209    C    0.56690   0.67630   0.20920   1.000
    C210    C    0.43310   0.67630   0.79080   1.000
    C211    C    0.79140   0.37510   0.71050   1.000
    C212    C    0.79140   0.62490   0.28950   1.000
    C213    C    0.20860   0.37510   0.28950   1.000
    C214    C    0.71050   0.20860   0.62490   1.000
    C215    C    0.71050   0.79140   0.37510   1.000
    C216    C    0.28950   0.79140   0.62490   1.000
    C217    C    0.28950   0.20860   0.37510   1.000
    C218    C    0.62490   0.71050   0.20860   1.000
    C219    C    0.37510   0.71050   0.79140   1.000
    C220    C    0.62490   0.28950   0.79140   1.000
    C221    C    0.37510   0.28950   0.20860   1.000
    C222    C    0.12490   0.70860   0.21050   1.000
    C223    C    0.87510   0.29140   0.21050   1.000
    C224    C    0.12490   0.29140   0.78950   1.000
    C225    C    0.87510   0.70860   0.78950   1.000
    C226    C    0.70860   0.21050   0.12490   1.000
    C227    C    0.29140   0.21050   0.87510   1.000
    C228    C    0.29140   0.78950   0.12490   1.000
    C229    C    0.70860   0.78950   0.87510   1.000
    C230    C    0.21050   0.12490   0.70860   1.000
    C231    C    0.21050   0.87510   0.29140   1.000
    C232    C    0.78950   0.12490   0.29140   1.000
    C233    C    0.78950   0.87510   0.70860   1.000
    C234    C    0.53980   0.60810   0.79110   1.000
    C235    C    0.79080   0.43310   0.67630   1.000
    C236    C    0.79080   0.56690   0.32370   1.000
    C237    C    0.20920   0.43310   0.32370   1.000
    C238    C    0.67630   0.20920   0.56690   1.000
    C239    C    0.67630   0.79080   0.43310   1.000
    C240    C    0.32370   0.79080   0.56690   1.000
    C241    C    0.32370   0.20920   0.43310   1.000
    C242    C    0.93310   0.29080   0.17630   1.000
    C243    C    0.06690   0.29080   0.82370   1.000
    C244    C    0.93310   0.70920   0.82370   1.000
    C245    C    0.70920   0.17630   0.06690   1.000
    C246    C    0.29080   0.17630   0.93310   1.000
    C247    C    0.29080   0.82370   0.06690   1.000
    C248    C    0.70920   0.82370   0.93310   1.000
    C249    C    0.17630   0.06690   0.70920   1.000
    C250    C    0.17630   0.93310   0.29080   1.000
    C251    C    0.82370   0.06690   0.29080   1.000
    C252    C    0.82370   0.93310   0.70920   1.000
    C253    C    0.79110   0.53980   0.60810   1.000
    C254    C    0.79110   0.46020   0.39190   1.000
    C255    C    0.20890   0.53980   0.39190   1.000
    C256    C    0.60810   0.20890   0.46020   1.000
    C257    C    0.60810   0.79110   0.53980   1.000
    C258    C    0.39190   0.79110   0.46020   1.000
    C259    C    0.39190   0.20890   0.53980   1.000
    C260    C    0.46020   0.60810   0.20890   1.000
    C261    C    0.46020   0.39190   0.79110   1.000
    C262    C    0.53980   0.39190   0.20890   1.000
    C263    C    0.96020   0.70890   0.10810   1.000
    C264    C    0.03980   0.29110   0.10810   1.000
    C265    C    0.96020   0.29110   0.89190   1.000
    C266    C    0.03980   0.70890   0.89190   1.000
    C267    C    0.70890   0.10810   0.96020   1.000
    C268    C    0.29110   0.10810   0.03980   1.000
    C269    C    0.29110   0.89190   0.96020   1.000
    C270    C    0.70890   0.89190   0.03980   1.000
    C271    C    0.10810   0.96020   0.70890   1.000
    C272    C    0.10810   0.03980   0.29110   1.000
    C273    C    0.89190   0.96020   0.29110   1.000
    C274    C    0.89190   0.03980   0.70890   1.000
    H275    H    0.79235   0.57559   0.58511   1.000
    H276    H    0.79235   0.42441   0.41489   1.000
    H277    H    0.20765   0.57559   0.41489   1.000
    H278    H    0.58511   0.20765   0.42441   1.000
    H279    H    0.58511   0.79235   0.57559   1.000
    H280    H    0.41489   0.79235   0.42441   1.000
    H281    H    0.41489   0.20765   0.57559   1.000
    H282    H    0.42441   0.58511   0.20765   1.000
    H283    H    0.57559   0.58511   0.79235   1.000
    H284    H    0.42441   0.41489   0.79235   1.000
    H285    H    0.57559   0.41489   0.20765   1.000
    H286    H    0.92441   0.70765   0.08511   1.000
    H287    H    0.07559   0.29235   0.08511   1.000
    H288    H    0.92441   0.29235   0.91489   1.000
    H289    H    0.07559   0.70765   0.91489   1.000
    H290    H    0.70765   0.08511   0.92441   1.000
    H291    H    0.29235   0.08511   0.07559   1.000
    H292    H    0.29235   0.91489   0.92441   1.000
    H293    H    0.70765   0.91489   0.07559   1.000
    H294    H    0.08511   0.92441   0.70765   1.000
    H295    H    0.08511   0.07559   0.29235   1.000
    H296    H    0.91489   0.92441   0.29235   1.000
    H297    H    0.91489   0.07559   0.70765   1.000
    N298    N    0.79780   0.47620   0.51410   1.000
    N299    N    0.79780   0.52380   0.48590   1.000
    N300    N    0.20220   0.47620   0.48590   1.000
    N301    N    0.51410   0.20220   0.52380   1.000
    N302    N    0.51410   0.79780   0.47620   1.000
    N303    N    0.48590   0.79780   0.52380   1.000
    N304    N    0.48590   0.20220   0.47620   1.000
    N305    N    0.52380   0.51410   0.20220   1.000
    N306    N    0.47620   0.51410   0.79780   1.000
    N307    N    0.52380   0.48590   0.79780   1.000
    N308    N    0.47620   0.48590   0.20220   1.000
    N309    N    0.02380   0.70220   0.01410   1.000
    N310    N    0.97620   0.29780   0.01410   1.000
    N311    N    0.02380   0.29780   0.98590   1.000
    N312    N    0.97620   0.70220   0.98590   1.000
    N313    N    0.70220   0.01410   0.02380   1.000
    N314    N    0.29780   0.01410   0.97620   1.000
    N315    N    0.29780   0.98590   0.02380   1.000
    N316    N    0.70220   0.98590   0.97620   1.000
    N317    N    0.01410   0.02380   0.70220   1.000
    N318    N    0.01410   0.97620   0.29780   1.000
    N319    N    0.98590   0.02380   0.29780   1.000
    N320    N    0.98590   0.97620   0.70220   1.000
    C321    C    0.79590   0.48410   0.57970   1.000
    C322    C    0.79590   0.51590   0.42030   1.000
    C323    C    0.20410   0.48410   0.42030   1.000
    C324    C    0.57970   0.20410   0.51590   1.000
    C325    C    0.57970   0.79590   0.48410   1.000
    C326    C    0.42030   0.79590   0.51590   1.000
    C327    C    0.42030   0.20410   0.48410   1.000
    C328    C    0.51590   0.57970   0.20410   1.000
    C329    C    0.48410   0.57970   0.79590   1.000
    C330    C    0.51590   0.42030   0.79590   1.000
    C331    C    0.48410   0.42030   0.20410   1.000
    C332    C    0.01590   0.70410   0.07970   1.000
    C333    C    0.98410   0.29590   0.07970   1.000
    C334    C    0.01590   0.29590   0.92030   1.000
    C335    C    0.98410   0.70410   0.92030   1.000
    C336    C    0.70410   0.07970   0.01590   1.000
    C337    C    0.29590   0.07970   0.98410   1.000
    C338    C    0.29590   0.92030   0.01590   1.000
    C339    C    0.70410   0.92030   0.98410   1.000
    C340    C    0.07970   0.01590   0.70410   1.000
    C341    C    0.07970   0.98410   0.29590   1.000
    C342    C    0.92030   0.01590   0.29590   1.000
    C343    C    0.92030   0.98410   0.70410   1.000
    C344    C    0.79680   0.43050   0.61290   1.000
    C345    C    0.79680   0.56950   0.38710   1.000
    C346    C    0.20320   0.43050   0.38710   1.000
    C347    C    0.61290   0.20320   0.56950   1.000
    C348    C    0.61290   0.79680   0.43050   1.000
    C349    C    0.38710   0.79680   0.56950   1.000
    C350    C    0.38710   0.20320   0.43050   1.000
    C351    C    0.56950   0.61290   0.20320   1.000
    C352    C    0.43050   0.61290   0.79680   1.000
    C353    C    0.56950   0.38710   0.79680   1.000
    C354    C    0.43050   0.38710   0.20320   1.000
    C355    C    0.06950   0.70320   0.11290   1.000
    C356    C    0.93050   0.29680   0.11290   1.000
    C357    C    0.06950   0.29680   0.88710   1.000
    C358    C    0.93050   0.70320   0.88710   1.000
    C359    C    0.70320   0.11290   0.06950   1.000
    C360    C    0.29680   0.11290   0.93050   1.000
    C361    C    0.29680   0.88710   0.06950   1.000
    C362    C    0.70320   0.88710   0.93050   1.000
    C363    C    0.11290   0.06950   0.70320   1.000
    C364    C    0.11290   0.93050   0.29680   1.000
    C365    C    0.88710   0.06950   0.29680   1.000
    C366    C    0.88710   0.93050   0.70320   1.000
    H367    H    0.80136   0.39314   0.59323   1.000
    H368    H    0.80136   0.60686   0.40677   1.000
    H369    H    0.19864   0.39314   0.40677   1.000
    H370    H    0.59323   0.19864   0.60686   1.000
    H371    H    0.59323   0.80136   0.39314   1.000
    H372    H    0.40677   0.80136   0.60686   1.000
    H373    H    0.40677   0.19864   0.39314   1.000
    H374    H    0.60686   0.59323   0.19864   1.000
    H375    H    0.39314   0.59323   0.80136   1.000
    H376    H    0.60686   0.40677   0.80136   1.000
    H377    H    0.30136   0.09323   0.89314   1.000
    H378    H    0.30136   0.90677   0.10686   1.000
    H379    H    0.69864   0.90677   0.89314   1.000
    H380    H    0.09323   0.10686   0.69864   1.000
    H381    H    0.09323   0.89314   0.30136   1.000
    H382    H    0.90677   0.10686   0.30136   1.000
    H383    H    0.90677   0.89314   0.69864   1.000
loop_
    _geom_bond_atom_site_label_1
    _geom_bond_atom_site_label_2
    _geom_bond_distance
    _geom_bond_site_symmetry_2
    _ccdc_geom_bond_type
    H174   C151      0.93071      .   S
    H176   C153      0.93071      .   S
    C151   C245      1.38941      .   S
    C151   C201      1.38501  1_554   S
    C153   C247      1.38941      .   S
    C153   C203      1.38501  1_554   S
    N310   C333      1.44647      .   S
    N310   N311      1.21069  1_654   S
    N309   C332      1.44647      .   S
    N309   N312      1.21069  1_454   S
    C336   N313      1.44647      .   S
    C336   C359      1.37983      .   S
    C336   C267      1.37218  1_554   S
    C338   N315      1.44647      .   S
    C338   C361      1.37983      .   S
    C338   C269      1.37218  1_554   S
    N315   N314      1.21069  1_564   S
    N313   N316      1.21069  1_544   S
    C268   C202      1.37032      .   S
    C268   H291      0.93113      .   S
    C268   C337      1.37218  1_554   S
    C270   C204      1.37032      .   S
    C270   H293      0.93113      .   S
    C270   C339      1.37218  1_554   S
    C204   C131      1.50645      .   S
    C204   C154      1.38501  1_554   S
    C202   C129      1.50645      .   S
    C202   C152      1.38501  1_554   S
    C245   C359      1.39472      .   S
    C245   C226      1.47347      .   S
    C247   C361      1.39472      .   S
    C247   C228      1.47347      .   S
    C359   H183      0.92930      .   S
    C361   H378      0.92930      .   S
    C332   C263      1.37218  1_455   S
    C332   C355      1.37983      .   S
    C333   C264      1.37218  1_655   S
    C333   C356      1.37983      .   S
    H286   C263      0.93113      .   S
    H287   C264      0.93113      .   S
    H180   C356      0.92930      .   S
    H179   C355      0.92930      .   S
    C129   O80       1.26587      .   S
    C129   O32       1.26396      .   S
    C131   O82       1.26587      .   S
    C131   O34       1.26396      .   S
    C263   C197      1.37032      .   S
    C264   C198      1.37032      .   S
    C355   C106      1.39472      .   S
    C356   C242      1.39472      .   S
    C228   O56       1.24338      .   S
    C228   O107      1.26253      .   S
    C226   O54       1.24338      .   S
    C226   O102      1.26253      .   S
    O28    C125      1.26396      .   S
    O27    C124      1.26396      .   S
    C198   C125      1.50645      .   S
    C198   C148      1.38501  1_455   S
    C197   C124      1.50645      .   S
    C197   C147      1.38501  1_655   S
    C242   C148      1.38941      .   S
    C242   C223      1.47347      .   S
    C106   C147      1.38941      .   S
    C106   C222      1.47347      .   S
    O99    C223      1.26253      .   S
    O98    C222      1.26253      .   S
    O97    C221      1.26253      .   S
    O94    C218      1.26253      .   S
    H374   C351      0.92930      .   S
    H178   C354      0.92930      .   S
    C125   O76       1.26587      .   S
    C124   O73       1.26587      .   S
    N305   N308      1.21069      .   S
    N305   C328      1.44647      .   S
    N308   C331      1.44647      .   S
    C354   C331      1.37983      .   S
    C354   C105      1.39472      .   S
    C351   C328      1.37983      .   S
    C351   C209      1.39472      .   S
    O26    C123      1.26396      .   S
    O23    C120      1.26396      .   S
    C328   C260      1.37218      .   S
    C331   C262      1.37218      .   S
    C147   H170      0.93071      .   S
    C148   H171      0.93071      .   S
    H285   C262      0.93113      .   S
    H282   C260      0.93113      .   S
    C221   C105      1.47347      .   S
    C221   O49       1.24338      .   S
    C218   C209      1.47347      .   S
    C218   O46       1.24338      .   S
    C262   C196      1.37032      .   S
    C260   C193      1.37032      .   S
    C105   C146      1.38941      .   S
    C209   C143      1.38941      .   S
    C223   O51       1.24338      .   S
    C222   O50       1.24338      .   S
    C193   C143      1.38501      .   S
    C193   C120      1.50645      .   S
    C196   C146      1.38501      .   S
    C196   C123      1.50645      .   S
    C146   H169      0.93071      .   S
    C143   H166      0.93071      .   S
    C120   O69       1.26587      .   S
    C123   O72       1.26587      .   S
    O40    C212      1.24338      .   S
    O41    C213      1.24338      .   S
    O63    C114      1.26587      .   S
    O64    C115      1.26587      .   S
    H161   C138      0.93071      .   S
    H160   C137      0.93071      .   S
    O85    C134      1.26587      .   S
    O84    C133      1.26587      .   S
    O59    C231      1.24338      .   S
    O60    C232      1.24338      .   S
    H184   C157      0.93071      .   S
    H75    C156      0.93071      .   S
    C133   C206      1.50645      .   S
    C133   O36       1.26396      .   S
    C134   C207      1.50645      .   S
    C134   O37       1.26396      .   S
    C157   C207      1.38501  1_545   S
    C157   C251      1.38941      .   S
    C156   C206      1.38501  1_565   S
    C156   C250      1.38941      .   S
    C207   C273      1.37032      .   S
    C206   C272      1.37032      .   S
    C212   O88       1.26253      .   S
    C212   C236      1.47347      .   S
    C213   O89       1.26253      .   S
    C213   C237      1.47347      .   S
    C251   C232      1.47347      .   S
    C251   C365      1.39472      .   S
    C250   C231      1.47347      .   S
    C250   C364      1.39472      .   S
    C272   H295      0.93113      .   S
    C272   C341      1.37218  1_545   S
    C273   H296      0.93113      .   S
    C273   C342      1.37218  1_565   S
    C231   O110      1.26253      .   S
    C232   O111      1.26253      .   S
    C138   C237      1.38941      .   S
    C138   C188      1.38501      .   S
    C137   C236      1.38941      .   S
    C137   C187      1.38501      .   S
    C342   C365      1.37983      .   S
    C342   N319      1.44647      .   S
    C341   C364      1.37983      .   S
    C341   N318      1.44647      .   S
    C364   H381      0.92930      .   S
    C365   H382      0.92930      .   S
    N319   N318      1.21069  1_645   S
    C114   C187      1.50645      .   S
    C114   O17       1.26396      .   S
    C115   C188      1.50645      .   S
    C115   O18       1.26396      .   S
    C237   C346      1.39472      .   S
    C236   C345      1.39472      .   S
    O91    C215      1.26253      .   S
    O93    C217      1.26253      .   S
    C187   C254      1.37032      .   S
    C188   C255      1.37032      .   S
    O19    C116      1.26396      .   S
    O21    C118      1.26396      .   S
    O43    C215      1.24338      .   S
    O45    C217      1.24338      .   S
    C215   C239      1.47347      .   S
    C217   C241      1.47347      .   S
    C346   H369      0.92930      .   S
    C346   C323      1.37983      .   S
    C345   H368      0.92930      .   S
    C345   C322      1.37983      .   S
    C255   H277      0.93113      .   S
    C255   C323      1.37218      .   S
    C254   H276      0.93113      .   S
    C254   C322      1.37218      .   S
    O67    C118      1.26587      .   S
    O65    C116      1.26587      .   S
    H371   C348      0.92930      .   S
    H373   C350      0.92930      .   S
    C118   C191      1.50645      .   S
    C116   C189      1.50645      .   S
    C323   N300      1.44647      .   S
    C322   N299      1.44647      .   S
    H280   C258      0.93113      .   S
    H278   C256      0.93113      .   S
    C350   C241      1.39472      .   S
    C350   C327      1.37983      .   S
    C348   C239      1.39472      .   S
    C348   C325      1.37983      .   S
    C239   C140      1.38941      .   S
    C241   C142      1.38941      .   S
    C189   C256      1.37032      .   S
    C189   C139      1.38501      .   S
    C191   C258      1.37032      .   S
    C191   C141      1.38501      .   S
    C256   C324      1.37218      .   S
    C258   C326      1.37218      .   S
    N302   C325      1.44647      .   S
    N302   N303      1.21069      .   S
    N304   C327      1.44647      .   S
    N304   N301      1.21069      .   S
    C325   C257      1.37218      .   S
    C327   C259      1.37218      .   S
    N300   N12       1.21069      .   S
    N299   N298      1.21069      .   S
    C140   H163      0.93071      .   S
    C140   C190      1.38501      .   S
    C142   H165      0.93071      .   S
    C142   C192      1.38501      .   S
    H164   C141      0.93071      .   S
    H162   C139      0.93071      .   S
    C139   C238      1.38941      .   S
    C141   C240      1.38941      .   S
    N12    C13       1.44647      .   S
    N298   C321      1.44647      .   S
    C324   N301      1.44647      .   S
    C324   C347      1.37983      .   S
    C326   N303      1.44647      .   S
    C326   C349      1.37983      .   S
    C259   C192      1.37032      .   S
    C259   H281      0.93113      .   S
    C257   C190      1.37032      .   S
    C257   H279      0.93113      .   S
    C192   C119      1.50645      .   S
    C190   C117      1.50645      .   S
    C238   C347      1.39472      .   S
    C238   C214      1.47347      .   S
    C240   C349      1.39472      .   S
    C240   C216      1.47347      .   S
    C347   H370      0.92930      .   S
    C349   H372      0.92930      .   S
    C321   C253      1.37218      .   S
    C321   C344      1.37983      .   S
    C13    C10       1.37218      .   S
    C13    C14       1.37983      .   S
    H11    C10       0.93113      .   S
    H275   C253      0.93113      .   S
    H367   C344      0.92930      .   S
    H15    C14       0.92930      .   S
    C117   O66       1.26587      .   S
    C117   O20       1.26396      .   S
    C119   O68       1.26587      .   S
    C119   O22       1.26396      .   S
    C10    C7        1.37032      .   S
    C253   C186      1.37032      .   S
    C344   C235      1.39472      .   S
    C14    C9        1.39472      .   S
    C214   O42       1.24338      .   S
    C214   O90       1.26253      .   S
    C216   O44       1.24338      .   S
    C216   O92       1.26253      .   S
    O16    C113      1.26396      .   S
    O0     C4        1.26396      .   S
    C186   C113      1.50645      .   S
    C186   C136      1.38501      .   S
    C7     C4        1.50645      .   S
    C7     C5        1.38501      .   S
    C235   C136      1.38941      .   S
    C235   C211      1.47347      .   S
    C9     C5        1.38941      .   S
    C9     C8        1.47347      .   S
    O87    C211      1.26253      .   S
    O3     C8        1.26253      .   S
    O109   C230      1.26253      .   S
    O112   C233      1.26253      .   S
    H383   C366      0.92930      .   S
    H380   C363      0.92930      .   S
    C113   O62       1.26587      .   S
    C4     O2        1.26587      .   S
    N317   N320      1.21069  1_445   S
    N317   C340      1.44647      .   S
    N320   C343      1.44647      .   S
    C366   C343      1.37983      .   S
    C366   C252      1.39472      .   S
    C363   C340      1.37983      .   S
    C363   C249      1.39472      .   S
    C340   C271      1.37218  1_545   S
    O35    C132      1.26396      .   S
    O38    C135      1.26396      .   S
    C343   C274      1.37218  1_565   S
    C136   H159      0.93071      .   S
    C5     H6        0.93071      .   S
    H297   C274      0.93113      .   S
    H294   C271      0.93113      .   S
    C233   C252      1.47347      .   S
    C233   O61       1.24338      .   S
    C230   C249      1.47347      .   S
    C230   O58       1.24338      .   S
    C271   C205      1.37032      .   S
    C274   C208      1.37032      .   S
    C252   C158      1.38941      .   S
    C249   C155      1.38941      .   S
    C211   O39       1.24338      .   S
    C8     O1        1.24338      .   S
    C205   C155      1.38501  1_565   S
    C205   C132      1.50645      .   S
    C208   C158      1.38501  1_545   S
    C208   C135      1.50645      .   S
    C155   H74       0.93071      .   S
    C158   H185      0.93071      .   S
    C135   O86       1.26587      .   S
    C132   O83       1.26587      .   S
    O52    C224      1.24338      .   S
    O53    C225      1.24338      .   S
    O78    C127      1.26587      .   S
    O77    C126      1.26587      .   S
    H172   C149      0.93071      .   S
    H173   C150      0.93071      .   S
    O70    C121      1.26587      .   S
    O71    C122      1.26587      .   S
    O47    C219      1.24338      .   S
    O48    C220      1.24338      .   S
    H168   C145      0.93071      .   S
    H167   C144      0.93071      .   S
    C122   C195      1.50645      .   S
    C122   O25       1.26396      .   S
    C121   C194      1.50645      .   S
    C121   O24       1.26396      .   S
    C145   C195      1.38501      .   S
    C145   C104      1.38941      .   S
    C144   C194      1.38501      .   S
    C144   C210      1.38941      .   S
    C194   C234      1.37032      .   S
    C195   C261      1.37032      .   S
    C224   O100      1.26253      .   S
    C224   C243      1.47347      .   S
    C225   O101      1.26253      .   S
    C225   C244      1.47347      .   S
    C210   C219      1.47347      .   S
    C210   C352      1.39472      .   S
    C104   C220      1.47347      .   S
    C104   C353      1.39472      .   S
    C234   H283      0.93113      .   S
    C234   C329      1.37218      .   S
    C261   H284      0.93113      .   S
    C261   C330      1.37218      .   S
    C220   O96       1.26253      .   S
    C219   O95       1.26253      .   S
    C149   C243      1.38941      .   S
    C149   C199      1.38501  1_455   S
    C150   C244      1.38941      .   S
    C150   C200      1.38501  1_655   S
    C330   C353      1.37983      .   S
    C330   N307      1.44647      .   S
    C329   C352      1.37983      .   S
    C329   N306      1.44647      .   S
    C352   H375      0.92930      .   S
    C353   H376      0.92930      .   S
    N306   N307      1.21069      .   S
    C127   C200      1.50645      .   S
    C127   O30       1.26396      .   S
    C126   C199      1.50645      .   S
    C126   O29       1.26396      .   S
    C244   C358      1.39472      .   S
    C243   C357      1.39472      .   S
    O108   C229      1.26253      .   S
    O103   C227      1.26253      .   S
    C199   C265      1.37032      .   S
    C200   C266      1.37032      .   S
    O33    C130      1.26396      .   S
    O31    C128      1.26396      .   S
    O55    C227      1.24338      .   S
    O57    C229      1.24338      .   S
    C227   C246      1.47347      .   S
    C229   C248      1.47347      .   S
    C358   H182      0.92930      .   S
    C358   C335      1.37983      .   S
    C357   H181      0.92930      .   S
    C357   C334      1.37983      .   S
    C265   H288      0.93113      .   S
    C265   C334      1.37218  1_655   S
    C266   H289      0.93113      .   S
    C266   C335      1.37218  1_455   S
    O79    C128      1.26587      .   S
    O81    C130      1.26587      .   S
    H377   C360      0.92930      .   S
    H379   C362      0.92930      .   S
    C128   C201      1.50645      .   S
    C130   C203      1.50645      .   S
    C334   N311      1.44647      .   S
    C335   N312      1.44647      .   S
    H290   C267      0.93113      .   S
    H292   C269      0.93113      .   S
    C360   C246      1.39472      .   S
    C360   C337      1.37983      .   S
    C362   C248      1.39472      .   S
    C362   C339      1.37983      .   S
    C246   C152      1.38941      .   S
    C248   C154      1.38941      .   S
    C201   C267      1.37032      .   S
    C203   C269      1.37032      .   S
    N316   C339      1.44647      .   S
    N314   C337      1.44647      .   S
    C152   H175      0.93071      .   S
    C154   H177      0.93071      .   S
