# CIF file generated by openbabel 2.4.90, see http://openbabel.sf.net
data_I
_chemical_name_common ''
_cell_length_a 21.8827
_cell_length_b 21.8827
_cell_length_c 21.8827
_cell_angle_alpha 90
_cell_angle_beta 90
_cell_angle_gamma 90
_space_group_name_H-M_alt 'P 1'
_space_group_name_Hall 'P 1'
loop_
    _symmetry_equiv_pos_as_xyz
    x,y,z
loop_
    _atom_site_label
    _atom_site_type_symbol
    _atom_site_fract_x
    _atom_site_fract_y
    _atom_site_fract_z
    _atom_site_occupancy
    O0      O    0.24044   0.75956   0.75956   1.000
    O1      O    0.23820   0.62560   0.89020   1.000
    Fe2     Fe   0.23949   0.69773   0.81804   1.000
    Fe3     Fe   0.76051   0.30227   0.81804   1.000
    Fe4     Fe   0.76051   0.69773   0.18196   1.000
    Fe5     Fe   0.23949   0.30227   0.18196   1.000
    Fe6     Fe   0.81804   0.23949   0.69773   1.000
    Fe7     Fe   0.81804   0.76051   0.30227   1.000
    Fe8     Fe   0.18196   0.76051   0.69773   1.000
    Fe9     Fe   0.18196   0.23949   0.30227   1.000
    Fe10    Fe   0.69773   0.81804   0.23949   1.000
    Fe11    Fe   0.30227   0.81804   0.76051   1.000
    Fe12    Fe   0.69773   0.18196   0.76051   1.000
    Fe13    Fe   0.30227   0.18196   0.23949   1.000
    Fe14    Fe   0.19773   0.73949   0.31804   1.000
    Fe15    Fe   0.80227   0.26051   0.31804   1.000
    Fe16    Fe   0.19773   0.26051   0.68196   1.000
    Fe17    Fe   0.80227   0.73949   0.68196   1.000
    Fe18    Fe   0.73949   0.31804   0.19773   1.000
    Fe19    Fe   0.26051   0.31804   0.80227   1.000
    Fe20    Fe   0.26051   0.68196   0.19773   1.000
    Fe21    Fe   0.73949   0.68196   0.80227   1.000
    Fe22    Fe   0.31804   0.19773   0.73949   1.000
    Fe23    Fe   0.31804   0.80227   0.26051   1.000
    Fe24    Fe   0.68196   0.19773   0.26051   1.000
    Fe25    Fe   0.68196   0.80227   0.73949   1.000
    O26     O    0.75956   0.24044   0.75956   1.000
    O27     O    0.75956   0.75956   0.24044   1.000
    O28     O    0.24044   0.24044   0.24044   1.000
    O29     O    0.25956   0.74044   0.25956   1.000
    O30     O    0.74044   0.25956   0.25956   1.000
    O31     O    0.25956   0.25956   0.74044   1.000
    O32     O    0.74044   0.74044   0.74044   1.000
    O33     O    0.76180   0.37440   0.89020   1.000
    O34     O    0.76180   0.62560   0.10980   1.000
    O35     O    0.23820   0.37440   0.10980   1.000
    O36     O    0.89020   0.23820   0.62560   1.000
    O37     O    0.89020   0.76180   0.37440   1.000
    O38     O    0.10980   0.76180   0.62560   1.000
    O39     O    0.10980   0.23820   0.37440   1.000
    O40     O    0.62560   0.89020   0.23820   1.000
    O41     O    0.37440   0.89020   0.76180   1.000
    O42     O    0.62560   0.10980   0.76180   1.000
    O43     O    0.37440   0.10980   0.23820   1.000
    O44     O    0.12560   0.73820   0.39020   1.000
    O45     O    0.87440   0.26180   0.39020   1.000
    O46     O    0.12560   0.26180   0.60980   1.000
    O47     O    0.87440   0.73820   0.60980   1.000
    O48     O    0.73820   0.39020   0.12560   1.000
    O49     O    0.26180   0.39020   0.87440   1.000
    O50     O    0.26180   0.60980   0.12560   1.000
    O51     O    0.73820   0.60980   0.87440   1.000
    O52     O    0.39020   0.12560   0.73820   1.000
    O53     O    0.39020   0.87440   0.26180   1.000
    O54     O    0.60980   0.12560   0.26180   1.000
    O55     O    0.60980   0.87440   0.73820   1.000
loop_
    _geom_bond_atom_site_label_1
    _geom_bond_atom_site_label_2
    _geom_bond_distance
    _geom_bond_site_symmetry_2
    _ccdc_geom_bond_type
    O35    Fe5       2.23284      .   S
    O34    Fe4       2.23284      .   S
    O50    Fe20      2.23284      .   S
    O48    Fe18      2.23284      .   S
    Fe5    O28       1.86244      .   S
    Fe18   O30       1.86244      .   S
    Fe20   O29       1.86244      .   S
    O43    Fe13      2.23284      .   S
    O40    Fe10      2.23284      .   S
    Fe10   O27       1.86244      .   S
    O28    Fe9       1.86244      .   S
    O27    Fe7       1.86244      .   S
    O30    Fe24      1.86244      .   S
    O29    Fe14      1.86244      .   S
    Fe24   O54       2.23284      .   S
    Fe23   O53       2.23284      .   S
    Fe9    O39       2.23284      .   S
    Fe7    O37       2.23284      .   S
    Fe14   O44       2.23284      .   S
    Fe15   O45       2.23284      .   S
    O46    Fe16      2.23284      .   S
    O47    Fe17      2.23284      .   S
    O36    Fe6       2.23284      .   S
    O38    Fe8       2.23284      .   S
    Fe16   O31       1.86244      .   S
    O52    Fe22      2.23284      .   S
    O55    Fe25      2.23284      .   S
    Fe25   O32       1.86244      .   S
    O32    Fe21      1.86244      .   S
    O31    Fe19      1.86244      .   S
    O26    Fe12      1.86244      .   S
    O26    Fe3       1.86244      .   S
    O0     Fe11      1.86244      .   S
    O0     Fe2       1.86244      .   S
    Fe11   O41       2.23284      .   S
    Fe12   O42       2.23284      .   S
    Fe19   O49       2.23284      .   S
    Fe21   O51       2.23284      .   S
    Fe3    O33       2.23284      .   S
    Fe2    O1        2.23284      .   S
    O0     Fe8       1.86244      .   S
    O26    Fe6       1.86244      .   S
    O27    Fe4       1.86244      .   S
    O28    Fe13      1.86244      .   S
    O29    Fe23      1.86244      .   S
    O30    Fe15      1.86244      .   S
    O31    Fe22      1.86244      .   S
    O32    Fe17      1.86244      .   S
