# CIF file generated by openbabel 2.4.90, see http://openbabel.sf.net
data_I
_chemical_name_common ''
_cell_length_a 21.8827
_cell_length_b 21.8827
_cell_length_c 21.8827
_cell_angle_alpha 90
_cell_angle_beta 90
_cell_angle_gamma 90
_space_group_name_H-M_alt 'P 1'
_space_group_name_Hall 'P 1'
loop_
    _symmetry_equiv_pos_as_xyz
    x,y,z
loop_
    _atom_site_label
    _atom_site_type_symbol
    _atom_site_fract_x
    _atom_site_fract_y
    _atom_site_fract_z
    _atom_site_occupancy
    N0      N    0.21135   0.50000   0.50000   1.000
    N1      N    0.71135   0.00000   0.00000   1.000
    N2      N    0.28865   0.00000   0.00000   1.000
    N3      N    0.78865   0.50000   0.50000   1.000
    N4      N    0.00000   0.71135   0.00000   1.000
    N5      N    0.00000   0.28865   0.00000   1.000
    N6      N    0.50000   0.50000   0.21135   1.000
    N7      N    0.50000   0.50000   0.78865   1.000
    N8      N    0.00000   0.00000   0.71135   1.000
    N9      N    0.50000   0.21135   0.50000   1.000
    N10     N    0.00000   0.00000   0.28865   1.000
    N11     N    0.50000   0.78865   0.50000   1.000
    Zr12    Zr   0.25906   0.25906   0.74094   1.000
    Zr13    Zr   0.25906   0.74094   0.25906   1.000
    Zr14    Zr   0.74094   0.25906   0.25906   1.000
    Zr15    Zr   0.24094   0.24094   0.24094   1.000
    Zr16    Zr   0.75906   0.24094   0.75906   1.000
    Zr17    Zr   0.24094   0.75906   0.75906   1.000
    Zr18    Zr   0.75906   0.75906   0.24094   1.000
    Zr19    Zr   0.74094   0.74094   0.74094   1.000
    O20     O    0.72547   0.18969   0.17667   1.000
    O21     O    0.73906   0.17700   0.83709   1.000
    O22     O    0.73906   0.82300   0.16291   1.000
    O23     O    0.72547   0.81031   0.82333   1.000
    O24     O    0.81031   0.17667   0.27453   1.000
    O25     O    0.18969   0.82333   0.27453   1.000
    O26     O    0.17700   0.16291   0.26094   1.000
    O27     O    0.82300   0.83709   0.26094   1.000
    O28     O    0.67700   0.23906   0.33709   1.000
    O29     O    0.82333   0.27453   0.18969   1.000
    O30     O    0.76094   0.33709   0.32300   1.000
    O31     O    0.66291   0.32300   0.23906   1.000
    O32     O    0.67667   0.31031   0.77453   1.000
    O33     O    0.32333   0.68969   0.77453   1.000
    O34     O    0.33709   0.32300   0.76094   1.000
    O35     O    0.66291   0.67700   0.76094   1.000
    O36     O    0.23906   0.66291   0.32300   1.000
    O37     O    0.22547   0.67667   0.68969   1.000
    O38     O    0.23906   0.33709   0.67700   1.000
    O39     O    0.22547   0.32333   0.31031   1.000
    O40     O    0.68969   0.22547   0.67667   1.000
    O41     O    0.83709   0.26094   0.82300   1.000
    O42     O    0.77453   0.32333   0.68969   1.000
    O43     O    0.82300   0.16291   0.73906   1.000
    O44     O    0.32300   0.76094   0.33709   1.000
    O45     O    0.31031   0.77453   0.67667   1.000
    O46     O    0.68969   0.77453   0.32333   1.000
    O47     O    0.67700   0.76094   0.66291   1.000
    O48     O    0.33709   0.67700   0.23906   1.000
    O49     O    0.17667   0.72547   0.18969   1.000
    O50     O    0.27453   0.81031   0.17667   1.000
    O51     O    0.17700   0.83709   0.73906   1.000
    O52     O    0.16291   0.73906   0.82300   1.000
    O53     O    0.26094   0.82300   0.83709   1.000
    O54     O    0.32300   0.23906   0.66291   1.000
    O55     O    0.17667   0.27453   0.81031   1.000
    O56     O    0.18969   0.17667   0.72547   1.000
    O57     O    0.27453   0.18969   0.82333   1.000
    O58     O    0.31031   0.22547   0.32333   1.000
    O59     O    0.16291   0.26094   0.17700   1.000
    O60     O    0.32333   0.31031   0.22547   1.000
    O61     O    0.26094   0.17700   0.16291   1.000
    O62     O    0.77453   0.67667   0.31031   1.000
    O63     O    0.67667   0.68969   0.22547   1.000
    O64     O    0.83709   0.73906   0.17700   1.000
    O65     O    0.76094   0.66291   0.67700   1.000
    O66     O    0.81031   0.82333   0.72547   1.000
    O67     O    0.82333   0.72547   0.81031   1.000
loop_
    _geom_bond_atom_site_label_1
    _geom_bond_atom_site_label_2
    _geom_bond_distance
    _geom_bond_site_symmetry_2
    _ccdc_geom_bond_type
    N1     O20       5.68069      .   S
    Zr14   O20       2.38128      .   S
    N1     O21       5.29894  1_554   S
    Zr16   O21       2.25040      .   S
    N1     O22       5.29894  1_545   S
    Zr18   O22       2.25040      .   S
    N1     O23       5.68069  1_544   S
    Zr19   O23       2.38128      .   S
    N10    O24       5.68069  1_455   S
    Zr14   O24       2.38128      .   S
    N10    O25       5.68069  1_545   S
    Zr13   O25       2.38128      .   S
    N10    O26       5.29894      .   S
    Zr15   O26       2.25040      .   S
    N10    O27       5.29894  1_445   S
    Zr18   O27       2.25040      .   S
    Zr14   O28       2.25040      .   S
    N9     O28       5.29894      .   S
    Zr14   O29       2.38128      .   S
    N5     O29       5.68069  1_455   S
    Zr14   O30       2.25040      .   S
    N3     O30       5.29894      .   S
    Zr14   O31       2.25040      .   S
    N6     O31       5.29894      .   S
    N7     O32       5.68069      .   S
    Zr16   O32       2.38128      .   S
    N7     O33       5.68069      .   S
    Zr17   O33       2.38128      .   S
    N7     O34       5.29894      .   S
    Zr12   O34       2.25040      .   S
    N7     O35       5.29894      .   S
    Zr19   O35       2.25040      .   S
    N0     O36       5.29894      .   S
    Zr13   O36       2.25040      .   S
    N0     O37       5.68069      .   S
    Zr17   O37       2.38128      .   S
    N0     O38       5.29894      .   S
    Zr12   O38       2.25040      .   S
    N0     O39       5.68069      .   S
    Zr15   O39       2.38128      .   S
    Zr16   O40       2.38128      .   S
    N9     O40       5.68069      .   S
    Zr16   O41       2.25040      .   S
    N5     O41       5.29894  1_454   S
    Zr16   O42       2.38128      .   S
    N3     O42       5.68069      .   S
    Zr16   O43       2.25040      .   S
    N8     O43       5.29894  1_455   S
    N11    O44       5.29894      .   S
    Zr13   O44       2.25040      .   S
    N11    O45       5.68069      .   S
    Zr17   O45       2.38128      .   S
    N11    O46       5.68069      .   S
    Zr18   O46       2.38128      .   S
    N11    O47       5.29894      .   S
    Zr19   O47       2.25040      .   S
    Zr13   O48       2.25040      .   S
    N6     O48       5.29894      .   S
    Zr13   O49       2.38128      .   S
    N4     O49       5.68069      .   S
    Zr13   O50       2.38128      .   S
    N2     O50       5.68069  1_545   S
    Zr17   O51       2.25040      .   S
    N8     O51       5.29894  1_545   S
    Zr17   O52       2.25040      .   S
    N4     O52       5.29894  1_554   S
    Zr17   O53       2.25040      .   S
    N2     O53       5.29894  1_544   S
    Zr12   O54       2.25040      .   S
    N9     O54       5.29894      .   S
    Zr12   O55       2.38128      .   S
    N5     O55       5.68069  1_554   S
    Zr12   O56       2.38128      .   S
    N8     O56       5.68069      .   S
    Zr12   O57       2.38128      .   S
    N2     O57       5.68069  1_554   S
    N9     O58       5.68069      .   S
    Zr15   O58       2.38128      .   S
    N5     O59       5.29894      .   S
    Zr15   O59       2.25040      .   S
    Zr15   O60       2.38128      .   S
    N6     O60       5.68069      .   S
    Zr15   O61       2.25040      .   S
    N2     O61       5.29894      .   S
    Zr18   O62       2.38128      .   S
    N3     O62       5.68069      .   S
    Zr18   O63       2.38128      .   S
    N6     O63       5.68069      .   S
    Zr18   O64       2.25040      .   S
    N4     O64       5.29894  1_455   S
    N3     O65       5.29894      .   S
    Zr19   O65       2.25040      .   S
    Zr19   O66       2.38128      .   S
    N8     O66       5.68069  1_445   S
    Zr19   O67       2.38128      .   S
    N4     O67       5.68069  1_454   S
