# CIF file generated by openbabel 2.4.90, see http://openbabel.sf.net
data_I
_chemical_name_common ''
_cell_length_a 21.8827
_cell_length_b 21.8827
_cell_length_c 21.8827
_cell_angle_alpha 90
_cell_angle_beta 90
_cell_angle_gamma 90
_space_group_name_H-M_alt 'P 1'
_space_group_name_Hall 'P 1'
loop_
    _symmetry_equiv_pos_as_xyz
    x,y,z
loop_
    _atom_site_label
    _atom_site_type_symbol
    _atom_site_fract_x
    _atom_site_fract_y
    _atom_site_fract_z
    _atom_site_occupancy
    Zr0     Zr   0.23949   0.69773   0.81804   1.000
    Zr1     Zr   0.24044   0.75956   0.75956   1.000
    Zr2     Zr   0.23820   0.62560   0.89020   1.000
    Zr3     Zr   0.76051   0.30227   0.81804   1.000
    Zr4     Zr   0.76051   0.69773   0.18196   1.000
    Zr5     Zr   0.23949   0.30227   0.18196   1.000
    Zr6     Zr   0.81804   0.23949   0.69773   1.000
    Zr7     Zr   0.81804   0.76051   0.30227   1.000
    Zr8     Zr   0.18196   0.76051   0.69773   1.000
    Zr9     Zr   0.18196   0.23949   0.30227   1.000
    Zr10    Zr   0.69773   0.81804   0.23949   1.000
    Zr11    Zr   0.30227   0.81804   0.76051   1.000
    Zr12    Zr   0.69773   0.18196   0.76051   1.000
    Zr13    Zr   0.30227   0.18196   0.23949   1.000
    Zr14    Zr   0.19773   0.73949   0.31804   1.000
    Zr15    Zr   0.80227   0.26051   0.31804   1.000
    Zr16    Zr   0.19773   0.26051   0.68196   1.000
    Zr17    Zr   0.80227   0.73949   0.68196   1.000
    Zr18    Zr   0.73949   0.31804   0.19773   1.000
    Zr19    Zr   0.26051   0.31804   0.80227   1.000
    Zr20    Zr   0.26051   0.68196   0.19773   1.000
    Zr21    Zr   0.73949   0.68196   0.80227   1.000
    Zr22    Zr   0.31804   0.19773   0.73949   1.000
    Zr23    Zr   0.31804   0.80227   0.26051   1.000
    Zr24    Zr   0.68196   0.19773   0.26051   1.000
    Zr25    Zr   0.68196   0.80227   0.73949   1.000
    Zr26    Zr   0.75956   0.24044   0.75956   1.000
    Zr27    Zr   0.75956   0.75956   0.24044   1.000
    Zr28    Zr   0.24044   0.24044   0.24044   1.000
    Zr29    Zr   0.25956   0.74044   0.25956   1.000
    Zr30    Zr   0.74044   0.25956   0.25956   1.000
    Zr31    Zr   0.25956   0.25956   0.74044   1.000
    Zr32    Zr   0.74044   0.74044   0.74044   1.000
    Zr33    Zr   0.76180   0.37440   0.89020   1.000
    Zr34    Zr   0.76180   0.62560   0.10980   1.000
    Zr35    Zr   0.23820   0.37440   0.10980   1.000
    Zr36    Zr   0.89020   0.23820   0.62560   1.000
    Zr37    Zr   0.89020   0.76180   0.37440   1.000
    Zr38    Zr   0.10980   0.76180   0.62560   1.000
    Zr39    Zr   0.10980   0.23820   0.37440   1.000
    Zr40    Zr   0.62560   0.89020   0.23820   1.000
    Zr41    Zr   0.37440   0.89020   0.76180   1.000
    Zr42    Zr   0.62560   0.10980   0.76180   1.000
    Zr43    Zr   0.37440   0.10980   0.23820   1.000
    Zr44    Zr   0.12560   0.73820   0.39020   1.000
    Zr45    Zr   0.87440   0.26180   0.39020   1.000
    Zr46    Zr   0.12560   0.26180   0.60980   1.000
    Zr47    Zr   0.87440   0.73820   0.60980   1.000
    Zr48    Zr   0.73820   0.39020   0.12560   1.000
    Zr49    Zr   0.26180   0.39020   0.87440   1.000
    Zr50    Zr   0.26180   0.60980   0.12560   1.000
    Zr51    Zr   0.73820   0.60980   0.87440   1.000
    Zr52    Zr   0.39020   0.12560   0.73820   1.000
    Zr53    Zr   0.39020   0.87440   0.26180   1.000
    Zr54    Zr   0.60980   0.12560   0.26180   1.000
    Zr55    Zr   0.60980   0.87440   0.73820   1.000
    O56     O    0.23884   0.33833   0.14588   1.000
    O57     O    0.76115   0.66166   0.14588   1.000
    O58     O    0.26116   0.64588   0.16166   1.000
    O59     O    0.73884   0.35412   0.16166   1.000
    O60     O    0.23996   0.27135   0.21120   1.000
    O61     O    0.73996   0.28880   0.22864   1.000
    O62     O    0.26004   0.71120   0.22864   1.000
    O63     O    0.33833   0.14588   0.23884   1.000
    O64     O    0.66166   0.85412   0.23884   1.000
    O65     O    0.72864   0.78880   0.23996   1.000
    O66     O    0.21120   0.23996   0.27135   1.000
    O67     O    0.78880   0.76004   0.27135   1.000
    O68     O    0.71120   0.22864   0.26004   1.000
    O69     O    0.22864   0.73996   0.28880   1.000
    O70     O    0.64588   0.16166   0.26116   1.000
    O71     O    0.35412   0.83833   0.26116   1.000
    O72     O    0.14588   0.23884   0.33833   1.000
    O73     O    0.85412   0.76115   0.33833   1.000
    O74     O    0.16166   0.73884   0.35412   1.000
    O75     O    0.83833   0.26116   0.35412   1.000
    O76     O    0.16166   0.26116   0.64588   1.000
    O77     O    0.83833   0.73884   0.64588   1.000
    O78     O    0.85412   0.23884   0.66166   1.000
    O79     O    0.14588   0.76115   0.66166   1.000
    O80     O    0.22864   0.26004   0.71120   1.000
    O81     O    0.35412   0.16166   0.73884   1.000
    O82     O    0.64588   0.83833   0.73884   1.000
    O83     O    0.71120   0.77135   0.73996   1.000
    O84     O    0.73996   0.71120   0.77135   1.000
    O85     O    0.26004   0.28880   0.77135   1.000
    O86     O    0.72864   0.21120   0.76004   1.000
    O87     O    0.76004   0.27135   0.78880   1.000
    O88     O    0.27135   0.78880   0.76004   1.000
    O89     O    0.23996   0.72864   0.78880   1.000
    O90     O    0.33833   0.85412   0.76115   1.000
    O91     O    0.66166   0.14588   0.76115   1.000
    O92     O    0.26116   0.35412   0.83833   1.000
    O93     O    0.73884   0.64588   0.83833   1.000
    O94     O    0.76115   0.33833   0.85412   1.000
    O95     O    0.23884   0.66166   0.85412   1.000
    O96     O    0.21120   0.76004   0.72864   1.000
    O97     O    0.78880   0.23996   0.72864   1.000
    O98     O    0.76004   0.72864   0.21120   1.000
    O99     O    0.27135   0.21120   0.23996   1.000
    O100    O    0.28880   0.77135   0.26004   1.000
    O101    O    0.77135   0.26004   0.28880   1.000
    O102    O    0.28880   0.22864   0.73996   1.000
    O103    O    0.77135   0.73996   0.71120   1.000
    N104    N    0.21135   0.50000   0.50000   1.000
    O105    O    0.20613   0.59741   0.41251   1.000
    O106    O    0.23198   0.57235   0.36135   1.000
    O107    O    0.19819   0.39223   0.40512   1.000
    O108    O    0.22180   0.41923   0.35426   1.000
    O109    O    0.20613   0.40259   0.58749   1.000
    O110    O    0.22180   0.58077   0.64573   1.000
    O111    O    0.23198   0.42764   0.63865   1.000
    O112    O    0.19819   0.60777   0.59488   1.000
    N113    N    0.71135   0.00000   0.00000   1.000
    O114    O    0.70613   0.08749   0.90259   1.000
    O115    O    0.70613   0.91251   0.09741   1.000
    O116    O    0.72180   0.85426   0.91923   1.000
    O117    O    0.73198   0.13865   0.92764   1.000
    O118    O    0.69819   0.09488   0.10777   1.000
    O119    O    0.72180   0.14573   0.08077   1.000
    O120    O    0.69819   0.90512   0.89223   1.000
    O121    O    0.73198   0.86135   0.07236   1.000
    N122    N    0.28865   0.00000   0.00000   1.000
    O123    O    0.29387   0.08749   0.09741   1.000
    O124    O    0.27820   0.85426   0.08077   1.000
    O125    O    0.26802   0.13865   0.07236   1.000
    O126    O    0.30181   0.09488   0.89223   1.000
    O127    O    0.30181   0.90512   0.10777   1.000
    O128    O    0.27820   0.14573   0.91923   1.000
    O129    O    0.29387   0.91251   0.90259   1.000
    O130    O    0.26802   0.86135   0.92764   1.000
    N131    N    0.78865   0.50000   0.50000   1.000
    O132    O    0.79387   0.59741   0.58749   1.000
    O133    O    0.76802   0.57236   0.63865   1.000
    O134    O    0.76802   0.42764   0.36135   1.000
    O135    O    0.77820   0.41923   0.64573   1.000
    O136    O    0.80181   0.39223   0.59488   1.000
    O137    O    0.80181   0.60777   0.40512   1.000
    O138    O    0.77820   0.58077   0.35426   1.000
    O139    O    0.79387   0.40259   0.41251   1.000
    N140    N    0.00000   0.71135   0.00000   1.000
    O141    O    0.10777   0.69819   0.09488   1.000
    O142    O    0.08077   0.72180   0.14573   1.000
    O143    O    0.91923   0.72180   0.85426   1.000
    O144    O    0.90259   0.70613   0.08749   1.000
    O145    O    0.92764   0.73198   0.13865   1.000
    O146    O    0.89223   0.69819   0.90512   1.000
    O147    O    0.09741   0.70613   0.91251   1.000
    O148    O    0.07235   0.73198   0.86135   1.000
    N149    N    0.00000   0.28865   0.00000   1.000
    O150    O    0.91923   0.27820   0.14573   1.000
    O151    O    0.08077   0.27820   0.85426   1.000
    O152    O    0.90259   0.29387   0.91251   1.000
    O153    O    0.07235   0.26802   0.13865   1.000
    O154    O    0.89223   0.30181   0.09488   1.000
    O155    O    0.10777   0.30181   0.90512   1.000
    O156    O    0.92764   0.26802   0.86135   1.000
    O157    O    0.09741   0.29387   0.08749   1.000
    N158    N    0.50000   0.50000   0.21135   1.000
    O159    O    0.40259   0.58749   0.20613   1.000
    O160    O    0.39223   0.40512   0.19819   1.000
    O161    O    0.58077   0.64573   0.22180   1.000
    O162    O    0.57235   0.36135   0.23198   1.000
    O163    O    0.41923   0.35426   0.22180   1.000
    O164    O    0.60777   0.59488   0.19819   1.000
    O165    O    0.42764   0.63865   0.23198   1.000
    O166    O    0.59741   0.41251   0.20613   1.000
    N167    N    0.50000   0.50000   0.78865   1.000
    O168    O    0.60777   0.40512   0.80181   1.000
    O169    O    0.59741   0.58749   0.79387   1.000
    O170    O    0.41923   0.64574   0.77820   1.000
    O171    O    0.58077   0.35426   0.77820   1.000
    O172    O    0.39223   0.59488   0.80181   1.000
    O173    O    0.57236   0.63865   0.76802   1.000
    O174    O    0.42765   0.36135   0.76802   1.000
    O175    O    0.40259   0.41251   0.79387   1.000
    N176    N    0.00000   0.00000   0.71135   1.000
    O177    O    0.08749   0.90259   0.70613   1.000
    O178    O    0.85426   0.91923   0.72180   1.000
    O179    O    0.13865   0.92764   0.73198   1.000
    O180    O    0.91251   0.09741   0.70613   1.000
    O181    O    0.14573   0.08077   0.72180   1.000
    O182    O    0.90512   0.89223   0.69819   1.000
    O183    O    0.86135   0.07235   0.73198   1.000
    O184    O    0.09488   0.10777   0.69819   1.000
    N185    N    0.50000   0.21135   0.50000   1.000
    O186    O    0.64573   0.22180   0.58077   1.000
    O187    O    0.63865   0.23198   0.42764   1.000
    O188    O    0.59488   0.19819   0.60777   1.000
    O189    O    0.40512   0.19819   0.39223   1.000
    O190    O    0.41251   0.20613   0.59741   1.000
    O191    O    0.36135   0.23198   0.57235   1.000
    O192    O    0.35426   0.22180   0.41923   1.000
    O193    O    0.58749   0.20613   0.40259   1.000
    N194    N    0.00000   0.00000   0.28865   1.000
    O195    O    0.08749   0.09741   0.29387   1.000
    O196    O    0.91251   0.90259   0.29387   1.000
    O197    O    0.85426   0.08077   0.27820   1.000
    O198    O    0.13865   0.07236   0.26802   1.000
    O199    O    0.14573   0.91923   0.27820   1.000
    O200    O    0.90512   0.10777   0.30181   1.000
    O201    O    0.86135   0.92764   0.26802   1.000
    O202    O    0.09488   0.89223   0.30181   1.000
    N203    N    0.50000   0.78865   0.50000   1.000
    O204    O    0.64574   0.77820   0.41923   1.000
    O205    O    0.41251   0.79387   0.40259   1.000
    O206    O    0.59488   0.80181   0.39223   1.000
    O207    O    0.40512   0.80181   0.60777   1.000
    O208    O    0.58749   0.79387   0.59741   1.000
    O209    O    0.35426   0.77820   0.58077   1.000
    O210    O    0.63865   0.76802   0.57235   1.000
    O211    O    0.36135   0.76802   0.42764   1.000
loop_
    _geom_bond_atom_site_label_1
    _geom_bond_atom_site_label_2
    _geom_bond_distance
    _geom_bond_site_symmetry_2
    _ccdc_geom_bond_type
    Zr35   O56       1.11642      .   S
    Zr5    O56       1.11642      .   S
    Zr34   O57       1.11642      .   S
    Zr4    O57       1.11642      .   S
    Zr50   O58       1.11642      .   S
    Zr20   O58       1.11642      .   S
    Zr48   O59       1.11642      .   S
    Zr18   O59       1.11642      .   S
    Zr5    O60       0.93122      .   S
    Zr28   O60       0.93122      .   S
    Zr18   O61       0.93122      .   S
    Zr30   O61       0.93122      .   S
    Zr20   O62       0.93122      .   S
    Zr29   O62       0.93122      .   S
    Zr43   O63       1.11642      .   S
    Zr13   O63       1.11642      .   S
    Zr40   O64       1.11642      .   S
    Zr10   O64       1.11642      .   S
    Zr10   O65       0.93122      .   S
    Zr27   O65       0.93122      .   S
    Zr28   O66       0.93122      .   S
    Zr9    O66       0.93122      .   S
    Zr27   O67       0.93122      .   S
    Zr7    O67       0.93122      .   S
    Zr30   O68       0.93122      .   S
    Zr24   O68       0.93122      .   S
    Zr29   O69       0.93122      .   S
    Zr14   O69       0.93122      .   S
    Zr24   O70       1.11642      .   S
    Zr54   O70       1.11642      .   S
    Zr23   O71       1.11642      .   S
    Zr53   O71       1.11642      .   S
    Zr9    O72       1.11642      .   S
    Zr39   O72       1.11642      .   S
    Zr7    O73       1.11642      .   S
    Zr37   O73       1.11642      .   S
    Zr14   O74       1.11642      .   S
    Zr44   O74       1.11642      .   S
    Zr15   O75       1.11642      .   S
    Zr45   O75       1.11642      .   S
    Zr46   O76       1.11642      .   S
    Zr16   O76       1.11642      .   S
    Zr47   O77       1.11642      .   S
    Zr17   O77       1.11642      .   S
    Zr36   O78       1.11642      .   S
    Zr6    O78       1.11642      .   S
    Zr38   O79       1.11642      .   S
    Zr8    O79       1.11642      .   S
    Zr16   O80       0.93122      .   S
    Zr31   O80       0.93122      .   S
    Zr52   O81       1.11642      .   S
    Zr22   O81       1.11642      .   S
    Zr55   O82       1.11642      .   S
    Zr25   O82       1.11642      .   S
    Zr25   O83       0.93122      .   S
    Zr32   O83       0.93122      .   S
    Zr32   O84       0.93122      .   S
    Zr21   O84       0.93122      .   S
    Zr31   O85       0.93122      .   S
    Zr19   O85       0.93122      .   S
    Zr26   O86       0.93122      .   S
    Zr12   O86       0.93122      .   S
    Zr26   O87       0.93122      .   S
    Zr3    O87       0.93122      .   S
    Zr1    O88       0.93122      .   S
    Zr11   O88       0.93122      .   S
    Zr1    O89       0.93122      .   S
    Zr0    O89       0.93122      .   S
    Zr11   O90       1.11642      .   S
    Zr41   O90       1.11642      .   S
    Zr12   O91       1.11642      .   S
    Zr42   O91       1.11642      .   S
    Zr19   O92       1.11642      .   S
    Zr49   O92       1.11642      .   S
    Zr21   O93       1.11642      .   S
    Zr51   O93       1.11642      .   S
    Zr3    O94       1.11642      .   S
    Zr33   O94       1.11642      .   S
    Zr0    O95       1.11642      .   S
    Zr2    O95       1.11642      .   S
    Zr1    O96       0.93122      .   S
    Zr8    O96       0.93122      .   S
    Zr26   O97       0.93122      .   S
    Zr6    O97       0.93122      .   S
    Zr27   O98       0.93122      .   S
    Zr4    O98       0.93122      .   S
    Zr28   O99       0.93122      .   S
    Zr13   O99       0.93122      .   S
    Zr29   O100      0.93122      .   S
    Zr23   O100      0.93122      .   S
    Zr30   O101      0.93122      .   S
    Zr15   O101      0.93122      .   S
    Zr31   O102      0.93122      .   S
    Zr22   O102      0.93122      .   S
    Zr32   O103      0.93122      .   S
    Zr17   O103      0.93122      .   S
    N104   O105      2.86742      .   S
    Zr14   O105      3.73816      .   S
    N104   O106      3.45196      .   S
    Zr20   O106      4.35453      .   S
    N104   O107      3.15519      .   S
    Zr9    O107      4.04513      .   S
    N104   O108      3.65327      .   S
    Zr5    O108      4.57352      .   S
    N104   O109      2.86742      .   S
    Zr16   O109      3.73816      .   S
    N104   O110      3.65327      .   S
    Zr0    O110      4.57352      .   S
    N104   O111      3.45196      .   S
    Zr19   O111      4.35453      .   S
    N104   O112      3.15519      .   S
    Zr8    O112      4.04513      .   S
    N113   O114      2.86742  1_554   S
    Zr12   O114      3.73816      .   S
    N113   O115      2.86742  1_545   S
    Zr10   O115      3.73816      .   S
    N113   O116      3.65327  1_544   S
    Zr21   O116      4.57352      .   S
    N113   O117      3.45196  1_554   S
    Zr3    O117      4.35453      .   S
    N113   O118      3.15519      .   S
    Zr24   O118      4.04513      .   S
    N113   O119      3.65327      .   S
    Zr18   O119      4.57352      .   S
    N113   O120      3.15519  1_544   S
    Zr25   O120      4.04513      .   S
    N113   O121      3.45196  1_545   S
    Zr4    O121      4.35453      .   S
    N122   O123      2.86742      .   S
    Zr13   O123      3.73816      .   S
    N122   O124      3.65327  1_545   S
    Zr20   O124      4.57352      .   S
    N122   O125      3.45196      .   S
    Zr5    O125      4.35453      .   S
    N122   O126      3.15519  1_554   S
    Zr22   O126      4.04513      .   S
    N122   O127      3.15519  1_545   S
    Zr23   O127      4.04513      .   S
    N122   O128      3.65327  1_554   S
    Zr19   O128      4.57352      .   S
    N122   O129      2.86742  1_544   S
    Zr11   O129      3.73816      .   S
    N122   O130      3.45196  1_544   S
    Zr0    O130      4.35453      .   S
    N131   O132      2.86742      .   S
    Zr17   O132      3.73816      .   S
    N131   O133      3.45196      .   S
    Zr21   O133      4.35453      .   S
    N131   O134      3.45196      .   S
    Zr18   O134      4.35453      .   S
    N131   O135      3.65327      .   S
    Zr3    O135      4.57352      .   S
    N131   O136      3.15519      .   S
    Zr6    O136      4.04513      .   S
    N131   O137      3.15519      .   S
    Zr7    O137      4.04513      .   S
    N131   O138      3.65327      .   S
    Zr4    O138      4.57352      .   S
    N131   O139      2.86742      .   S
    Zr15   O139      3.73816      .   S
    N140   O141      3.15519      .   S
    Zr20   O141      4.04513      .   S
    N140   O142      3.65327      .   S
    Zr14   O142      4.57352      .   S
    N140   O143      3.65327  1_454   S
    Zr17   O143      4.57352      .   S
    N140   O144      2.86742  1_455   S
    Zr4    O144      3.73816      .   S
    N140   O145      3.45196  1_455   S
    Zr7    O145      4.35453      .   S
    N140   O146      3.15519  1_454   S
    Zr21   O146      4.04513      .   S
    N140   O147      2.86742  1_554   S
    Zr0    O147      3.73816      .   S
    N140   O148      3.45196  1_554   S
    Zr8    O148      4.35453      .   S
    N149   O150      3.65327  1_455   S
    Zr15   O150      4.57352      .   S
    N149   O151      3.65327  1_554   S
    Zr16   O151      4.57352      .   S
    N149   O152      2.86742  1_454   S
    Zr3    O152      3.73816      .   S
    N149   O153      3.45196      .   S
    Zr9    O153      4.35453      .   S
    N149   O154      3.15519  1_455   S
    Zr18   O154      4.04513      .   S
    N149   O155      3.15519  1_554   S
    Zr19   O155      4.04513      .   S
    N149   O156      3.45196  1_454   S
    Zr6    O156      4.35453      .   S
    N149   O157      2.86742      .   S
    Zr5    O157      3.73816      .   S
    N158   O159      2.86742      .   S
    Zr20   O159      3.73816      .   S
    N158   O160      3.15519      .   S
    Zr5    O160      4.04513      .   S
    N158   O161      3.65327      .   S
    Zr10   O161      4.57352      .   S
    N158   O162      3.45196      .   S
    Zr24   O162      4.35453      .   S
    N158   O163      3.65327      .   S
    Zr13   O163      4.57352      .   S
    N158   O164      3.15519      .   S
    Zr4    O164      4.04513      .   S
    N158   O165      3.45196      .   S
    Zr23   O165      4.35453      .   S
    N158   O166      2.86742      .   S
    Zr18   O166      3.73816      .   S
    N167   O168      3.15519      .   S
    Zr3    O168      4.04513      .   S
    N167   O169      2.86742      .   S
    Zr21   O169      3.73816      .   S
    N167   O170      3.65327      .   S
    Zr11   O170      4.57352      .   S
    N167   O171      3.65327      .   S
    Zr12   O171      4.57352      .   S
    N167   O172      3.15519      .   S
    Zr0    O172      4.04513      .   S
    N167   O173      3.45196      .   S
    Zr25   O173      4.35453      .   S
    N167   O174      3.45196      .   S
    Zr22   O174      4.35453      .   S
    N167   O175      2.86742      .   S
    Zr19   O175      3.73816      .   S
    N176   O177      2.86742  1_545   S
    Zr8    O177      3.73816      .   S
    N176   O178      3.65327  1_445   S
    Zr25   O178      4.57352      .   S
    N176   O179      3.45196  1_545   S
    Zr11   O179      4.35453      .   S
    N176   O180      2.86742  1_455   S
    Zr6    O180      3.73816      .   S
    N176   O181      3.65327      .   S
    Zr22   O181      4.57352      .   S
    N176   O182      3.15519  1_445   S
    Zr17   O182      4.04513      .   S
    N176   O183      3.45196  1_455   S
    Zr12   O183      4.35453      .   S
    N176   O184      3.15519      .   S
    Zr16   O184      4.04513      .   S
    N185   O186      3.65327      .   S
    Zr6    O186      4.57352      .   S
    N185   O187      3.45196      .   S
    Zr15   O187      4.35453      .   S
    N185   O188      3.15519      .   S
    Zr12   O188      4.04513      .   S
    N185   O189      3.15519      .   S
    Zr13   O189      4.04513      .   S
    N185   O190      2.86742      .   S
    Zr22   O190      3.73816      .   S
    N185   O191      3.45196      .   S
    Zr16   O191      4.35453      .   S
    N185   O192      3.65327      .   S
    Zr9    O192      4.57352      .   S
    N185   O193      2.86742      .   S
    Zr24   O193      3.73816      .   S
    N194   O195      2.86742      .   S
    Zr9    O195      3.73816      .   S
    N194   O196      2.86742  1_445   S
    Zr7    O196      3.73816      .   S
    N194   O197      3.65327  1_455   S
    Zr24   O197      4.57352      .   S
    N194   O198      3.45196      .   S
    Zr13   O198      4.35453      .   S
    N194   O199      3.65327  1_545   S
    Zr23   O199      4.57352      .   S
    N194   O200      3.15519  1_455   S
    Zr15   O200      4.04513      .   S
    N194   O201      3.45196  1_445   S
    Zr10   O201      4.35453      .   S
    N194   O202      3.15519  1_545   S
    Zr14   O202      4.04513      .   S
    N203   O204      3.65327      .   S
    Zr7    O204      4.57352      .   S
    N203   O205      2.86742      .   S
    Zr23   O205      3.73816      .   S
    N203   O206      3.15519      .   S
    Zr10   O206      4.04513      .   S
    N203   O207      3.15519      .   S
    Zr11   O207      4.04513      .   S
    N203   O208      2.86742      .   S
    Zr25   O208      3.73816      .   S
    N203   O209      3.65327      .   S
    Zr8    O209      4.57352      .   S
    N203   O210      3.45196      .   S
    Zr17   O210      4.35453      .   S
    N203   O211      3.45196      .   S
    Zr14   O211      4.35453      .   S
