# CIF file generated by openbabel 2.4.90, see http://openbabel.sf.net
data_I
_chemical_name_common ''
_cell_length_a 21.8827
_cell_length_b 21.8827
_cell_length_c 21.8827
_cell_angle_alpha 90
_cell_angle_beta 90
_cell_angle_gamma 90
_space_group_name_H-M_alt 'P 1'
_space_group_name_Hall 'P 1'
loop_
    _symmetry_equiv_pos_as_xyz
    x,y,z
loop_
    _atom_site_label
    _atom_site_type_symbol
    _atom_site_fract_x
    _atom_site_fract_y
    _atom_site_fract_z
    _atom_site_occupancy
    N0      N    0.21135   0.50000   0.50000   1.000
    N1      N    0.71135   0.00000   0.00000   1.000
    N2      N    0.28865   0.00000   0.00000   1.000
    N3      N    0.78865   0.50000   0.50000   1.000
    N4      N    0.00000   0.71135   0.00000   1.000
    N5      N    0.00000   0.28865   0.00000   1.000
    N6      N    0.50000   0.50000   0.21135   1.000
    N7      N    0.50000   0.50000   0.78865   1.000
    N8      N    0.00000   0.00000   0.71135   1.000
    N9      N    0.50000   0.21135   0.50000   1.000
    N10     N    0.00000   0.00000   0.28865   1.000
    N11     N    0.50000   0.78865   0.50000   1.000
    Zr12    Zr   0.25906   0.25906   0.74094   1.000
    O13     O    0.24552   0.34335   0.68979   1.000
    O14     O    0.26863   0.20240   0.83008   1.000
    O15     O    0.33083   0.33579   0.76740   1.000
    O16     O    0.18342   0.28044   0.82303   1.000
    O17     O    0.17697   0.18342   0.71956   1.000
    O18     O    0.23260   0.33083   0.66421   1.000
    O19     O    0.16992   0.26863   0.79760   1.000
    O20     O    0.31021   0.24552   0.65665   1.000
    O21     O    0.20240   0.16992   0.73137   1.000
    O22     O    0.34335   0.31021   0.75448   1.000
    O23     O    0.33579   0.23260   0.66917   1.000
    O24     O    0.28044   0.17697   0.81658   1.000
    Zr25    Zr   0.25906   0.74094   0.25906   1.000
    O26     O    0.18342   0.71956   0.17697   1.000
    O27     O    0.24552   0.65665   0.31021   1.000
    O28     O    0.33083   0.66421   0.23260   1.000
    O29     O    0.26863   0.79760   0.16992   1.000
    O30     O    0.17697   0.81658   0.28044   1.000
    O31     O    0.23260   0.66917   0.33579   1.000
    O32     O    0.31021   0.75448   0.34335   1.000
    O33     O    0.16992   0.73137   0.20240   1.000
    O34     O    0.28044   0.82303   0.18342   1.000
    O35     O    0.34335   0.68979   0.24552   1.000
    O36     O    0.20240   0.83008   0.26863   1.000
    O37     O    0.33579   0.76740   0.33083   1.000
    Zr38    Zr   0.74094   0.25906   0.25906   1.000
    O39     O    0.82303   0.18342   0.28044   1.000
    O40     O    0.83008   0.26863   0.20240   1.000
    O41     O    0.76740   0.33083   0.33579   1.000
    O42     O    0.68979   0.24552   0.34335   1.000
    O43     O    0.66917   0.33579   0.23260   1.000
    O44     O    0.81658   0.28044   0.17697   1.000
    O45     O    0.73137   0.20240   0.16992   1.000
    O46     O    0.75448   0.34335   0.31021   1.000
    O47     O    0.66421   0.23260   0.33083   1.000
    O48     O    0.65665   0.31021   0.24552   1.000
    O49     O    0.79760   0.16992   0.26863   1.000
    O50     O    0.71956   0.17697   0.18342   1.000
    Zr51    Zr   0.24094   0.24094   0.24094   1.000
    O52     O    0.33008   0.29760   0.23137   1.000
    O53     O    0.32303   0.21956   0.31658   1.000
    O54     O    0.18979   0.15665   0.25448   1.000
    O55     O    0.26740   0.16421   0.16917   1.000
    O56     O    0.21956   0.31658   0.32303   1.000
    O57     O    0.29760   0.23137   0.33008   1.000
    O58     O    0.15665   0.25448   0.18979   1.000
    O59     O    0.16421   0.16917   0.26740   1.000
    O60     O    0.23137   0.33008   0.29760   1.000
    O61     O    0.16917   0.26740   0.16421   1.000
    O62     O    0.31658   0.32303   0.21956   1.000
    O63     O    0.25448   0.18979   0.15665   1.000
    Zr64    Zr   0.75906   0.24094   0.75906   1.000
    O65     O    0.67697   0.21956   0.68342   1.000
    O66     O    0.81021   0.15665   0.74552   1.000
    O67     O    0.73260   0.16421   0.83083   1.000
    O68     O    0.66992   0.29760   0.76863   1.000
    O69     O    0.70240   0.23137   0.66992   1.000
    O70     O    0.84335   0.25448   0.81021   1.000
    O71     O    0.78044   0.31658   0.67697   1.000
    O72     O    0.83579   0.16917   0.73260   1.000
    O73     O    0.68342   0.32303   0.78044   1.000
    O74     O    0.83083   0.26740   0.83579   1.000
    O75     O    0.74552   0.18979   0.84335   1.000
    O76     O    0.76863   0.33008   0.70240   1.000
    Zr77    Zr   0.24094   0.75906   0.75906   1.000
    O78     O    0.32303   0.78044   0.68342   1.000
    O79     O    0.18979   0.84335   0.74552   1.000
    O80     O    0.33008   0.70240   0.76863   1.000
    O81     O    0.26740   0.83579   0.83083   1.000
    O82     O    0.21956   0.68342   0.67697   1.000
    O83     O    0.29760   0.76863   0.66992   1.000
    O84     O    0.15665   0.74552   0.81021   1.000
    O85     O    0.16421   0.83083   0.73260   1.000
    O86     O    0.23137   0.66992   0.70240   1.000
    O87     O    0.16917   0.73260   0.83579   1.000
    O88     O    0.31658   0.67697   0.78044   1.000
    O89     O    0.25448   0.81021   0.84335   1.000
    Zr90    Zr   0.75906   0.75906   0.24094   1.000
    O91     O    0.81021   0.84335   0.25448   1.000
    O92     O    0.73260   0.83579   0.16917   1.000
    O93     O    0.66992   0.70240   0.23137   1.000
    O94     O    0.67697   0.78044   0.31658   1.000
    O95     O    0.83579   0.83083   0.26740   1.000
    O96     O    0.78044   0.68342   0.32303   1.000
    O97     O    0.84335   0.74552   0.18979   1.000
    O98     O    0.70240   0.76863   0.33008   1.000
    O99     O    0.76863   0.66992   0.29760   1.000
    O100    O    0.74552   0.81021   0.15665   1.000
    O101    O    0.68342   0.67697   0.21956   1.000
    O102    O    0.83083   0.73260   0.16421   1.000
    Zr103   Zr   0.74094   0.74094   0.74094   1.000
    O104    O    0.82303   0.81658   0.71956   1.000
    O105    O    0.68979   0.75448   0.65665   1.000
    O106    O    0.83008   0.73137   0.79760   1.000
    O107    O    0.76740   0.66917   0.66421   1.000
    O108    O    0.66917   0.66421   0.76740   1.000
    O109    O    0.81658   0.71956   0.82303   1.000
    O110    O    0.73137   0.79760   0.83008   1.000
    O111    O    0.75448   0.65665   0.68979   1.000
    O112    O    0.71956   0.82303   0.81658   1.000
    O113    O    0.79760   0.83008   0.73137   1.000
    O114    O    0.65665   0.68979   0.75448   1.000
    O115    O    0.66421   0.76740   0.66917   1.000
loop_
    _geom_bond_atom_site_label_1
    _geom_bond_atom_site_label_2
    _geom_bond_distance
    _geom_bond_site_symmetry_2
    _ccdc_geom_bond_type
    Zr12   O13       2.17774      .   S
    N0     O13       5.43674      .   S
    Zr12   O14       2.32095      .   S
    N2     O14       5.79943  1_554   S
    Zr12   O15       2.37070      .   S
    N7     O15       5.18011      .   S
    Zr12   O16       2.48715      .   S
    N5     O16       5.58021  1_554   S
    Zr12   O17       2.48715      .   S
    N8     O17       5.58021      .   S
    Zr12   O18       2.37070      .   S
    N0     O18       5.18011      .   S
    Zr12   O19       2.32095      .   S
    N5     O19       5.79943  1_554   S
    Zr12   O20       2.17774      .   S
    N9     O20       5.43674      .   S
    Zr12   O21       2.32095      .   S
    N8     O21       5.79943      .   S
    Zr12   O22       2.17774      .   S
    N7     O22       5.43674      .   S
    Zr12   O23       2.37070      .   S
    N9     O23       5.18011      .   S
    Zr12   O24       2.48715      .   S
    N2     O24       5.58021  1_554   S
    Zr25   O26       2.48715      .   S
    N4     O26       5.58021      .   S
    Zr25   O27       2.17774      .   S
    N0     O27       5.43674      .   S
    Zr25   O28       2.37070      .   S
    N6     O28       5.18011      .   S
    Zr25   O29       2.32095      .   S
    N2     O29       5.79943  1_545   S
    Zr25   O30       2.48715      .   S
    N10    O30       5.58021  1_545   S
    Zr25   O31       2.37070      .   S
    N0     O31       5.18011      .   S
    Zr25   O32       2.17774      .   S
    N11    O32       5.43674      .   S
    Zr25   O33       2.32095      .   S
    N4     O33       5.79943      .   S
    Zr25   O34       2.48715      .   S
    N2     O34       5.58021  1_545   S
    Zr25   O35       2.17774      .   S
    N6     O35       5.43674      .   S
    Zr25   O36       2.32095      .   S
    N10    O36       5.79943  1_545   S
    Zr25   O37       2.37070      .   S
    N11    O37       5.18011      .   S
    Zr38   O39       2.48715      .   S
    N10    O39       5.58021  1_455   S
    Zr38   O40       2.32095      .   S
    N5     O40       5.79943  1_455   S
    Zr38   O41       2.37070      .   S
    N3     O41       5.18011      .   S
    Zr38   O42       2.17774      .   S
    N9     O42       5.43674      .   S
    Zr38   O43       2.37070      .   S
    N6     O43       5.18011      .   S
    Zr38   O44       2.48715      .   S
    N5     O44       5.58021  1_455   S
    Zr38   O45       2.32095      .   S
    N1     O45       5.79943      .   S
    Zr38   O46       2.17774      .   S
    N3     O46       5.43674      .   S
    Zr38   O47       2.37070      .   S
    N9     O47       5.18011      .   S
    Zr38   O48       2.17774      .   S
    N6     O48       5.43674      .   S
    Zr38   O49       2.32095      .   S
    N10    O49       5.79943  1_455   S
    Zr38   O50       2.48715      .   S
    N1     O50       5.58021      .   S
    Zr51   O52       2.32095      .   S
    N6     O52       5.79943      .   S
    Zr51   O53       2.48715      .   S
    N9     O53       5.58021      .   S
    Zr51   O54       2.17774      .   S
    N10    O54       5.43674      .   S
    Zr51   O55       2.37070      .   S
    N2     O55       5.18011      .   S
    Zr51   O56       2.48715      .   S
    N0     O56       5.58021      .   S
    Zr51   O57       2.32095      .   S
    N9     O57       5.79943      .   S
    Zr51   O58       2.17774      .   S
    N5     O58       5.43674      .   S
    Zr51   O59       2.37070      .   S
    N10    O59       5.18011      .   S
    Zr51   O60       2.32095      .   S
    N0     O60       5.79943      .   S
    Zr51   O61       2.37070      .   S
    N5     O61       5.18011      .   S
    Zr51   O62       2.48715      .   S
    N6     O62       5.58021      .   S
    Zr51   O63       2.17774      .   S
    N2     O63       5.43674      .   S
    Zr64   O65       2.48715      .   S
    N9     O65       5.58021      .   S
    Zr64   O66       2.17774      .   S
    N8     O66       5.43674  1_455   S
    Zr64   O67       2.37070      .   S
    N1     O67       5.18011  1_554   S
    Zr64   O68       2.32095      .   S
    N7     O68       5.79943      .   S
    Zr64   O69       2.32095      .   S
    N9     O69       5.79943      .   S
    Zr64   O70       2.17774      .   S
    N5     O70       5.43674  1_454   S
    Zr64   O71       2.48715      .   S
    N3     O71       5.58021      .   S
    Zr64   O72       2.37070      .   S
    N8     O72       5.18011  1_455   S
    Zr64   O73       2.48715      .   S
    N7     O73       5.58021      .   S
    Zr64   O74       2.37070      .   S
    N5     O74       5.18011  1_454   S
    Zr64   O75       2.17774      .   S
    N1     O75       5.43674  1_554   S
    Zr64   O76       2.32095      .   S
    N3     O76       5.79943      .   S
    Zr77   O78       2.48715      .   S
    N11    O78       5.58021      .   S
    Zr77   O79       2.17774      .   S
    N8     O79       5.43674  1_545   S
    Zr77   O80       2.32095      .   S
    N7     O80       5.79943      .   S
    Zr77   O81       2.37070      .   S
    N2     O81       5.18011  1_544   S
    Zr77   O82       2.48715      .   S
    N0     O82       5.58021      .   S
    Zr77   O83       2.32095      .   S
    N11    O83       5.79943      .   S
    Zr77   O84       2.17774      .   S
    N4     O84       5.43674  1_554   S
    Zr77   O85       2.37070      .   S
    N8     O85       5.18011  1_545   S
    Zr77   O86       2.32095      .   S
    N0     O86       5.79943      .   S
    Zr77   O87       2.37070      .   S
    N4     O87       5.18011  1_554   S
    Zr77   O88       2.48715      .   S
    N7     O88       5.58021      .   S
    Zr77   O89       2.17774      .   S
    N2     O89       5.43674  1_544   S
    Zr90   O91       2.17774      .   S
    N10    O91       5.43674  1_445   S
    Zr90   O92       2.37070      .   S
    N1     O92       5.18011  1_545   S
    Zr90   O93       2.32095      .   S
    N6     O93       5.79943      .   S
    Zr90   O94       2.48715      .   S
    N11    O94       5.58021      .   S
    Zr90   O95       2.37070      .   S
    N10    O95       5.18011  1_445   S
    Zr90   O96       2.48715      .   S
    N3     O96       5.58021      .   S
    Zr90   O97       2.17774      .   S
    N4     O97       5.43674  1_455   S
    Zr90   O98       2.32095      .   S
    N11    O98       5.79943      .   S
    Zr90   O99       2.32095      .   S
    N3     O99       5.79943      .   S
    Zr90   O100      2.17774      .   S
    N1     O100      5.43674  1_545   S
    Zr90   O101      2.48715      .   S
    N6     O101      5.58021      .   S
    Zr90   O102      2.37070      .   S
    N4     O102      5.18011  1_455   S
    Zr103  O104      2.48715      .   S
    N8     O104      5.58021  1_445   S
    Zr103  O105      2.17774      .   S
    N11    O105      5.43674      .   S
    Zr103  O106      2.32095      .   S
    N4     O106      5.79943  1_454   S
    Zr103  O107      2.37070      .   S
    N3     O107      5.18011      .   S
    Zr103  O108      2.37070      .   S
    N7     O108      5.18011      .   S
    Zr103  O109      2.48715      .   S
    N4     O109      5.58021  1_454   S
    Zr103  O110      2.32095      .   S
    N1     O110      5.79943  1_544   S
    Zr103  O111      2.17774      .   S
    N3     O111      5.43674      .   S
    Zr103  O112      2.48715      .   S
    N1     O112      5.58021  1_544   S
    Zr103  O113      2.32095      .   S
    N8     O113      5.79943  1_445   S
    Zr103  O114      2.17774      .   S
    N7     O114      5.43674      .   S
    Zr103  O115      2.37070      .   S
    N11    O115      5.18011      .   S
