# CIF file generated by openbabel 2.4.90, see http://openbabel.sf.net
data_I
_chemical_name_common ''
_cell_length_a 21.8827
_cell_length_b 21.8827
_cell_length_c 21.8827
_cell_angle_alpha 90
_cell_angle_beta 90
_cell_angle_gamma 90
_space_group_name_H-M_alt 'P 1'
_space_group_name_Hall 'P 1'
loop_
    _symmetry_equiv_pos_as_xyz
    x,y,z
loop_
    _atom_site_label
    _atom_site_type_symbol
    _atom_site_fract_x
    _atom_site_fract_y
    _atom_site_fract_z
    _atom_site_occupancy
    C0      C    0.23949   0.69773   0.81804   1.000
    C1      C    0.20410   0.34985   0.66800   1.000
    C2      C    0.22500   0.62535   0.76490   1.000
    C3      C    0.24470   0.39254   0.75233   1.000
    C4      C    0.18810   0.67056   0.68180   1.000
    C5      C    0.22150   0.39510   0.69940   1.000
    C6      C    0.21700   0.51050   0.70440   1.000
    C7      C    0.22327   0.50853   0.74642   1.000
    C8      C    0.21550   0.45720   0.67030   1.000
    C9      C    0.20860   0.62490   0.71050   1.000
    C10     C    0.20920   0.56690   0.67630   1.000
    C11     C    0.20890   0.46020   0.60810   1.000
    C12     C    0.20765   0.42441   0.58511   1.000
    C13     C    0.20220   0.52380   0.51410   1.000
    C14     C    0.20410   0.51590   0.57970   1.000
    C15     C    0.20320   0.56950   0.61290   1.000
    C16     C    0.19864   0.60686   0.59323   1.000
    C17     C    0.24044   0.75956   0.75956   1.000
    C18     C    0.23820   0.62560   0.89020   1.000
    C19     C    0.76051   0.30227   0.81804   1.000
    C20     C    0.76051   0.69773   0.18196   1.000
    C21     C    0.23949   0.30227   0.18196   1.000
    C22     C    0.81804   0.23949   0.69773   1.000
    C23     C    0.81804   0.76051   0.30227   1.000
    C24     C    0.18196   0.76051   0.69773   1.000
    C25     C    0.18196   0.23949   0.30227   1.000
    C26     C    0.69773   0.81804   0.23949   1.000
    C27     C    0.30227   0.81804   0.76051   1.000
    C28     C    0.69773   0.18196   0.76051   1.000
    C29     C    0.30227   0.18196   0.23949   1.000
    C30     C    0.19773   0.73949   0.31804   1.000
    C31     C    0.80227   0.26051   0.31804   1.000
    C32     C    0.19773   0.26051   0.68196   1.000
    C33     C    0.80227   0.73949   0.68196   1.000
    C34     C    0.73949   0.31804   0.19773   1.000
    C35     C    0.26051   0.31804   0.80227   1.000
    C36     C    0.26051   0.68196   0.19773   1.000
    C37     C    0.73949   0.68196   0.80227   1.000
    C38     C    0.31804   0.19773   0.73949   1.000
    C39     C    0.31804   0.80227   0.26051   1.000
    C40     C    0.68196   0.19773   0.26051   1.000
    C41     C    0.68196   0.80227   0.73949   1.000
    C42     C    0.79590   0.65015   0.66800   1.000
    C43     C    0.79590   0.34985   0.33200   1.000
    C44     C    0.20410   0.65015   0.33200   1.000
    C45     C    0.66800   0.20410   0.34985   1.000
    C46     C    0.66800   0.79590   0.65015   1.000
    C47     C    0.33200   0.79590   0.34985   1.000
    C48     C    0.33200   0.20410   0.65015   1.000
    C49     C    0.34985   0.66800   0.20410   1.000
    C50     C    0.65015   0.66800   0.79590   1.000
    C51     C    0.34985   0.33200   0.79590   1.000
    C52     C    0.65015   0.33200   0.20410   1.000
    C53     C    0.84985   0.70410   0.16800   1.000
    C54     C    0.15015   0.29590   0.16800   1.000
    C55     C    0.84985   0.29590   0.83200   1.000
    C56     C    0.15015   0.70410   0.83200   1.000
    C57     C    0.70410   0.16800   0.84985   1.000
    C58     C    0.29590   0.16800   0.15015   1.000
    C59     C    0.29590   0.83200   0.84985   1.000
    C60     C    0.70410   0.83200   0.15015   1.000
    C61     C    0.16800   0.84985   0.70410   1.000
    C62     C    0.16800   0.15015   0.29590   1.000
    C63     C    0.83200   0.84985   0.29590   1.000
    C64     C    0.83200   0.15015   0.70410   1.000
    C65     C    0.77500   0.37465   0.76490   1.000
    C66     C    0.77500   0.62535   0.23510   1.000
    C67     C    0.22500   0.37465   0.23510   1.000
    C68     C    0.76490   0.22500   0.62535   1.000
    C69     C    0.76490   0.77500   0.37465   1.000
    C70     C    0.23510   0.77500   0.62535   1.000
    C71     C    0.23510   0.22500   0.37465   1.000
    C72     C    0.62535   0.76490   0.22500   1.000
    C73     C    0.37465   0.76490   0.77500   1.000
    C74     C    0.62535   0.23510   0.77500   1.000
    C75     C    0.37465   0.23510   0.22500   1.000
    C76     C    0.12535   0.72500   0.26490   1.000
    C77     C    0.87465   0.27500   0.26490   1.000
    C78     C    0.12535   0.27500   0.73510   1.000
    C79     C    0.87465   0.72500   0.73510   1.000
    C80     C    0.72500   0.26490   0.12535   1.000
    C81     C    0.27500   0.26490   0.87465   1.000
    C82     C    0.27500   0.73510   0.12535   1.000
    C83     C    0.72500   0.73510   0.87465   1.000
    C84     C    0.26490   0.12535   0.72500   1.000
    C85     C    0.26490   0.87465   0.27500   1.000
    C86     C    0.73510   0.12535   0.27500   1.000
    C87     C    0.73510   0.87465   0.72500   1.000
    C88     C    0.75530   0.60746   0.75233   1.000
    C89     C    0.75530   0.39254   0.24767   1.000
    C90     C    0.24470   0.60746   0.24767   1.000
    C91     C    0.75233   0.24470   0.39254   1.000
    C92     C    0.75233   0.75530   0.60746   1.000
    C93     C    0.24767   0.75530   0.39254   1.000
    C94     C    0.24767   0.24470   0.60746   1.000
    C95     C    0.39254   0.75233   0.24470   1.000
    C96     C    0.60746   0.75233   0.75530   1.000
    C97     C    0.39254   0.24767   0.75530   1.000
    C98     C    0.60746   0.24767   0.24470   1.000
    C99     C    0.89254   0.74470   0.25233   1.000
    C100    C    0.10746   0.25530   0.25233   1.000
    C101    C    0.89254   0.25530   0.74767   1.000
    C102    C    0.10746   0.74470   0.74767   1.000
    C103    C    0.74470   0.25233   0.89254   1.000
    C104    C    0.25530   0.25233   0.10746   1.000
    C105    C    0.25530   0.74767   0.89254   1.000
    C106    C    0.74470   0.74767   0.10746   1.000
    C107    C    0.25233   0.89254   0.74470   1.000
    C108    C    0.25233   0.10746   0.25530   1.000
    C109    C    0.74767   0.89254   0.25530   1.000
    C110    C    0.74767   0.10746   0.74470   1.000
    C111    C    0.81190   0.32944   0.68180   1.000
    C112    C    0.81190   0.67056   0.31820   1.000
    C113    C    0.18810   0.32944   0.31820   1.000
    C114    C    0.68180   0.18810   0.67056   1.000
    C115    C    0.68180   0.81190   0.32944   1.000
    C116    C    0.31820   0.81190   0.67056   1.000
    C117    C    0.31820   0.18810   0.32944   1.000
    C118    C    0.67056   0.68180   0.18810   1.000
    C119    C    0.32944   0.68180   0.81190   1.000
    C120    C    0.67056   0.31820   0.81190   1.000
    C121    C    0.32944   0.31820   0.18810   1.000
    C122    C    0.17056   0.68810   0.18180   1.000
    C123    C    0.82944   0.31190   0.18180   1.000
    C124    C    0.17056   0.31190   0.81820   1.000
    C125    C    0.82944   0.68810   0.81820   1.000
    C126    C    0.68810   0.18180   0.17056   1.000
    C127    C    0.31190   0.18180   0.82944   1.000
    C128    C    0.31190   0.81820   0.17056   1.000
    C129    C    0.68810   0.81820   0.82944   1.000
    C130    C    0.18180   0.17056   0.68810   1.000
    C131    C    0.18180   0.82944   0.31190   1.000
    C132    C    0.81820   0.17056   0.31190   1.000
    C133    C    0.81820   0.82944   0.68810   1.000
    C134    C    0.77850   0.60490   0.69940   1.000
    C135    C    0.77850   0.39510   0.30060   1.000
    C136    C    0.22150   0.60490   0.30060   1.000
    C137    C    0.69940   0.22150   0.39510   1.000
    C138    C    0.69940   0.77850   0.60490   1.000
    C139    C    0.30060   0.77850   0.39510   1.000
    C140    C    0.30060   0.22150   0.60490   1.000
    C141    C    0.39510   0.69940   0.22150   1.000
    C142    C    0.60490   0.69940   0.77850   1.000
    C143    C    0.39510   0.30060   0.77850   1.000
    C144    C    0.60490   0.30060   0.22150   1.000
    C145    C    0.89510   0.72150   0.19940   1.000
    C146    C    0.10490   0.27850   0.19940   1.000
    C147    C    0.89510   0.27850   0.80060   1.000
    C148    C    0.10490   0.72150   0.80060   1.000
    C149    C    0.72150   0.19940   0.89510   1.000
    C150    C    0.27850   0.19940   0.10490   1.000
    C151    C    0.27850   0.80060   0.89510   1.000
    C152    C    0.72150   0.80060   0.10490   1.000
    C153    C    0.19940   0.89510   0.72150   1.000
    C154    C    0.19940   0.10490   0.27850   1.000
    C155    C    0.80060   0.89510   0.27850   1.000
    C156    C    0.80060   0.10490   0.72150   1.000
    C157    C    0.78300   0.48950   0.70440   1.000
    C158    C    0.78300   0.51050   0.29560   1.000
    C159    C    0.21700   0.48950   0.29560   1.000
    C160    C    0.70440   0.21700   0.51050   1.000
    C161    C    0.70440   0.78300   0.48950   1.000
    C162    C    0.29560   0.78300   0.51050   1.000
    C163    C    0.29560   0.21700   0.48950   1.000
    C164    C    0.51050   0.70440   0.21700   1.000
    C165    C    0.48950   0.70440   0.78300   1.000
    C166    C    0.51050   0.29560   0.78300   1.000
    C167    C    0.48950   0.29560   0.21700   1.000
    C168    C    0.01050   0.71700   0.20440   1.000
    C169    C    0.98950   0.28300   0.20440   1.000
    C170    C    0.01050   0.28300   0.79560   1.000
    C171    C    0.98950   0.71700   0.79560   1.000
    C172    C    0.71700   0.20440   0.01050   1.000
    C173    C    0.28300   0.20440   0.98950   1.000
    C174    C    0.28300   0.79560   0.01050   1.000
    C175    C    0.71700   0.79560   0.98950   1.000
    C176    C    0.20440   0.01050   0.71700   1.000
    C177    C    0.20440   0.98950   0.28300   1.000
    C178    C    0.79560   0.01050   0.28300   1.000
    C179    C    0.79560   0.98950   0.71700   1.000
    C180    C    0.77673   0.49147   0.74642   1.000
    C181    C    0.77673   0.50853   0.25358   1.000
    C182    C    0.22327   0.49147   0.25358   1.000
    C183    C    0.74642   0.22327   0.50853   1.000
    C184    C    0.74642   0.77673   0.49147   1.000
    C185    C    0.25358   0.77673   0.50853   1.000
    C186    C    0.25358   0.22327   0.49147   1.000
    C187    C    0.50853   0.74642   0.22327   1.000
    C188    C    0.49147   0.74642   0.77673   1.000
    C189    C    0.50853   0.25358   0.77673   1.000
    C190    C    0.49147   0.25358   0.22327   1.000
    C191    C    0.00853   0.72327   0.24642   1.000
    C192    C    0.99147   0.27673   0.24642   1.000
    C193    C    0.00853   0.27673   0.75358   1.000
    C194    C    0.99147   0.72327   0.75358   1.000
    C195    C    0.72327   0.24642   0.00853   1.000
    C196    C    0.27673   0.24642   0.99147   1.000
    C197    C    0.27673   0.75358   0.00853   1.000
    C198    C    0.72327   0.75358   0.99147   1.000
    C199    C    0.24642   0.00853   0.72327   1.000
    C200    C    0.24642   0.99147   0.27673   1.000
    C201    C    0.75358   0.00853   0.27673   1.000
    C202    C    0.75358   0.99147   0.72327   1.000
    C203    C    0.78450   0.54280   0.67030   1.000
    C204    C    0.78450   0.45720   0.32970   1.000
    C205    C    0.21550   0.54280   0.32970   1.000
    C206    C    0.67030   0.21550   0.45720   1.000
    C207    C    0.67030   0.78450   0.54280   1.000
    C208    C    0.32970   0.78450   0.45720   1.000
    C209    C    0.32970   0.21550   0.54280   1.000
    C210    C    0.45720   0.67030   0.21550   1.000
    C211    C    0.54280   0.67030   0.78450   1.000
    C212    C    0.45720   0.32970   0.78450   1.000
    C213    C    0.54280   0.32970   0.21550   1.000
    C214    C    0.95720   0.71550   0.17030   1.000
    C215    C    0.04280   0.28450   0.17030   1.000
    C216    C    0.95720   0.28450   0.82970   1.000
    C217    C    0.04280   0.71550   0.82970   1.000
    C218    C    0.71550   0.17030   0.95720   1.000
    C219    C    0.28450   0.17030   0.04280   1.000
    C220    C    0.28450   0.82970   0.95720   1.000
    C221    C    0.71550   0.82970   0.04280   1.000
    C222    C    0.17030   0.95720   0.71550   1.000
    C223    C    0.17030   0.04280   0.28450   1.000
    C224    C    0.82970   0.95720   0.28450   1.000
    C225    C    0.82970   0.04280   0.71550   1.000
    C226    C    0.79140   0.37510   0.71050   1.000
    C227    C    0.79140   0.62490   0.28950   1.000
    C228    C    0.20860   0.37510   0.28950   1.000
    C229    C    0.71050   0.20860   0.62490   1.000
    C230    C    0.71050   0.79140   0.37510   1.000
    C231    C    0.28950   0.79140   0.62490   1.000
    C232    C    0.28950   0.20860   0.37510   1.000
    C233    C    0.62490   0.71050   0.20860   1.000
    C234    C    0.37510   0.71050   0.79140   1.000
    C235    C    0.62490   0.28950   0.79140   1.000
    C236    C    0.37510   0.28950   0.20860   1.000
    C237    C    0.12490   0.70860   0.21050   1.000
    C238    C    0.87510   0.29140   0.21050   1.000
    C239    C    0.12490   0.29140   0.78950   1.000
    C240    C    0.87510   0.70860   0.78950   1.000
    C241    C    0.70860   0.21050   0.12490   1.000
    C242    C    0.29140   0.21050   0.87510   1.000
    C243    C    0.29140   0.78950   0.12490   1.000
    C244    C    0.70860   0.78950   0.87510   1.000
    C245    C    0.21050   0.12490   0.70860   1.000
    C246    C    0.21050   0.87510   0.29140   1.000
    C247    C    0.78950   0.12490   0.29140   1.000
    C248    C    0.78950   0.87510   0.70860   1.000
    C249    C    0.79080   0.43310   0.67630   1.000
    C250    C    0.79080   0.56690   0.32370   1.000
    C251    C    0.20920   0.43310   0.32370   1.000
    C252    C    0.67630   0.20920   0.56690   1.000
    C253    C    0.67630   0.79080   0.43310   1.000
    C254    C    0.32370   0.79080   0.56690   1.000
    C255    C    0.32370   0.20920   0.43310   1.000
    C256    C    0.56690   0.67630   0.20920   1.000
    C257    C    0.43310   0.67630   0.79080   1.000
    C258    C    0.56690   0.32370   0.79080   1.000
    C259    C    0.43310   0.32370   0.20920   1.000
    C260    C    0.06690   0.70920   0.17630   1.000
    C261    C    0.93310   0.29080   0.17630   1.000
    C262    C    0.06690   0.29080   0.82370   1.000
    C263    C    0.93310   0.70920   0.82370   1.000
    C264    C    0.70920   0.17630   0.06690   1.000
    C265    C    0.29080   0.17630   0.93310   1.000
    C266    C    0.29080   0.82370   0.06690   1.000
    C267    C    0.70920   0.82370   0.93310   1.000
    C268    C    0.17630   0.06690   0.70920   1.000
    C269    C    0.17630   0.93310   0.29080   1.000
    C270    C    0.82370   0.06690   0.29080   1.000
    C271    C    0.82370   0.93310   0.70920   1.000
    C272    C    0.79110   0.53980   0.60810   1.000
    C273    C    0.79110   0.46020   0.39190   1.000
    C274    C    0.20890   0.53980   0.39190   1.000
    C275    C    0.60810   0.20890   0.46020   1.000
    C276    C    0.60810   0.79110   0.53980   1.000
    C277    C    0.39190   0.79110   0.46020   1.000
    C278    C    0.39190   0.20890   0.53980   1.000
    C279    C    0.46020   0.60810   0.20890   1.000
    C280    C    0.53980   0.60810   0.79110   1.000
    C281    C    0.46020   0.39190   0.79110   1.000
    C282    C    0.53980   0.39190   0.20890   1.000
    C283    C    0.96020   0.70890   0.10810   1.000
    C284    C    0.03980   0.29110   0.10810   1.000
    C285    C    0.96020   0.29110   0.89190   1.000
    C286    C    0.03980   0.70890   0.89190   1.000
    C287    C    0.70890   0.10810   0.96020   1.000
    C288    C    0.29110   0.10810   0.03980   1.000
    C289    C    0.29110   0.89190   0.96020   1.000
    C290    C    0.70890   0.89190   0.03980   1.000
    C291    C    0.10810   0.96020   0.70890   1.000
    C292    C    0.10810   0.03980   0.29110   1.000
    C293    C    0.89190   0.96020   0.29110   1.000
    C294    C    0.89190   0.03980   0.70890   1.000
    C295    C    0.79235   0.57559   0.58511   1.000
    C296    C    0.79235   0.42441   0.41489   1.000
    C297    C    0.20765   0.57559   0.41489   1.000
    C298    C    0.58511   0.20765   0.42441   1.000
    C299    C    0.58511   0.79235   0.57559   1.000
    C300    C    0.41489   0.79235   0.42441   1.000
    C301    C    0.41489   0.20765   0.57559   1.000
    C302    C    0.42441   0.58511   0.20765   1.000
    C303    C    0.57559   0.58511   0.79235   1.000
    C304    C    0.42441   0.41489   0.79235   1.000
    C305    C    0.57559   0.41489   0.20765   1.000
    C306    C    0.92441   0.70765   0.08511   1.000
    C307    C    0.07559   0.29235   0.08511   1.000
    C308    C    0.92441   0.29235   0.91489   1.000
    C309    C    0.07559   0.70765   0.91489   1.000
    C310    C    0.70765   0.08511   0.92441   1.000
    C311    C    0.29235   0.08511   0.07559   1.000
    C312    C    0.29235   0.91489   0.92441   1.000
    C313    C    0.70765   0.91489   0.07559   1.000
    C314    C    0.08511   0.92441   0.70765   1.000
    C315    C    0.08511   0.07559   0.29235   1.000
    C316    C    0.91489   0.92441   0.29235   1.000
    C317    C    0.91489   0.07559   0.70765   1.000
    C318    C    0.79780   0.47620   0.51410   1.000
    C319    C    0.79780   0.52380   0.48590   1.000
    C320    C    0.20220   0.47620   0.48590   1.000
    C321    C    0.51410   0.20220   0.52380   1.000
    C322    C    0.51410   0.79780   0.47620   1.000
    C323    C    0.48590   0.79780   0.52380   1.000
    C324    C    0.48590   0.20220   0.47620   1.000
    C325    C    0.52380   0.51410   0.20220   1.000
    C326    C    0.47620   0.51410   0.79780   1.000
    C327    C    0.52380   0.48590   0.79780   1.000
    C328    C    0.47620   0.48590   0.20220   1.000
    C329    C    0.02380   0.70220   0.01410   1.000
    C330    C    0.97620   0.29780   0.01410   1.000
    C331    C    0.02380   0.29780   0.98590   1.000
    C332    C    0.97620   0.70220   0.98590   1.000
    C333    C    0.70220   0.01410   0.02380   1.000
    C334    C    0.29780   0.01410   0.97620   1.000
    C335    C    0.29780   0.98590   0.02380   1.000
    C336    C    0.70220   0.98590   0.97620   1.000
    C337    C    0.01410   0.02380   0.70220   1.000
    C338    C    0.01410   0.97620   0.29780   1.000
    C339    C    0.98590   0.02380   0.29780   1.000
    C340    C    0.98590   0.97620   0.70220   1.000
    C341    C    0.79590   0.48410   0.57970   1.000
    C342    C    0.79590   0.51590   0.42030   1.000
    C343    C    0.20410   0.48410   0.42030   1.000
    C344    C    0.57970   0.20410   0.51590   1.000
    C345    C    0.57970   0.79590   0.48410   1.000
    C346    C    0.42030   0.79590   0.51590   1.000
    C347    C    0.42030   0.20410   0.48410   1.000
    C348    C    0.51590   0.57970   0.20410   1.000
    C349    C    0.48410   0.57970   0.79590   1.000
    C350    C    0.51590   0.42030   0.79590   1.000
    C351    C    0.48410   0.42030   0.20410   1.000
    C352    C    0.01590   0.70410   0.07970   1.000
    C353    C    0.98410   0.29590   0.07970   1.000
    C354    C    0.01590   0.29590   0.92030   1.000
    C355    C    0.98410   0.70410   0.92030   1.000
    C356    C    0.70410   0.07970   0.01590   1.000
    C357    C    0.29590   0.07970   0.98410   1.000
    C358    C    0.29590   0.92030   0.01590   1.000
    C359    C    0.70410   0.92030   0.98410   1.000
    C360    C    0.07970   0.01590   0.70410   1.000
    C361    C    0.07970   0.98410   0.29590   1.000
    C362    C    0.92030   0.01590   0.29590   1.000
    C363    C    0.92030   0.98410   0.70410   1.000
    C364    C    0.79680   0.43050   0.61290   1.000
    C365    C    0.79680   0.56950   0.38710   1.000
    C366    C    0.20320   0.43050   0.38710   1.000
    C367    C    0.61290   0.20320   0.56950   1.000
    C368    C    0.61290   0.79680   0.43050   1.000
    C369    C    0.38710   0.79680   0.56950   1.000
    C370    C    0.38710   0.20320   0.43050   1.000
    C371    C    0.56950   0.61290   0.20320   1.000
    C372    C    0.43050   0.61290   0.79680   1.000
    C373    C    0.56950   0.38710   0.79680   1.000
    C374    C    0.43050   0.38710   0.20320   1.000
    C375    C    0.06950   0.70320   0.11290   1.000
    C376    C    0.93050   0.29680   0.11290   1.000
    C377    C    0.06950   0.29680   0.88710   1.000
    C378    C    0.93050   0.70320   0.88710   1.000
    C379    C    0.70320   0.11290   0.06950   1.000
    C380    C    0.29680   0.11290   0.93050   1.000
    C381    C    0.29680   0.88710   0.06950   1.000
    C382    C    0.70320   0.88710   0.93050   1.000
    C383    C    0.11290   0.06950   0.70320   1.000
    C384    C    0.11290   0.93050   0.29680   1.000
    C385    C    0.88710   0.06950   0.29680   1.000
    C386    C    0.88710   0.93050   0.70320   1.000
    C387    C    0.80136   0.39314   0.59323   1.000
    C388    C    0.80136   0.60686   0.40677   1.000
    C389    C    0.19864   0.39314   0.40677   1.000
    C390    C    0.59323   0.19864   0.60686   1.000
    C391    C    0.59323   0.80136   0.39314   1.000
    C392    C    0.40677   0.80136   0.60686   1.000
    C393    C    0.40677   0.19864   0.39314   1.000
    C394    C    0.60686   0.59323   0.19864   1.000
    C395    C    0.39314   0.59323   0.80136   1.000
    C396    C    0.60686   0.40677   0.80136   1.000
    C397    C    0.39314   0.40677   0.19864   1.000
    C398    C    0.10686   0.69864   0.09323   1.000
    C399    C    0.89314   0.30136   0.09323   1.000
    C400    C    0.10686   0.30136   0.90677   1.000
    C401    C    0.89314   0.69864   0.90677   1.000
    C402    C    0.69864   0.09323   0.10686   1.000
    C403    C    0.30136   0.09323   0.89314   1.000
    C404    C    0.30136   0.90677   0.10686   1.000
    C405    C    0.69864   0.90677   0.89314   1.000
    C406    C    0.09323   0.10686   0.69864   1.000
    C407    C    0.09323   0.89314   0.30136   1.000
    C408    C    0.90677   0.10686   0.30136   1.000
    C409    C    0.90677   0.89314   0.69864   1.000
    C410    C    0.75956   0.24044   0.75956   1.000
    C411    C    0.75956   0.75956   0.24044   1.000
    C412    C    0.24044   0.24044   0.24044   1.000
    C413    C    0.25956   0.74044   0.25956   1.000
    C414    C    0.74044   0.25956   0.25956   1.000
    C415    C    0.25956   0.25956   0.74044   1.000
    C416    C    0.74044   0.74044   0.74044   1.000
    C417    C    0.76180   0.37440   0.89020   1.000
    C418    C    0.76180   0.62560   0.10980   1.000
    C419    C    0.23820   0.37440   0.10980   1.000
    C420    C    0.89020   0.23820   0.62560   1.000
    C421    C    0.89020   0.76180   0.37440   1.000
    C422    C    0.10980   0.76180   0.62560   1.000
    C423    C    0.10980   0.23820   0.37440   1.000
    C424    C    0.62560   0.89020   0.23820   1.000
    C425    C    0.37440   0.89020   0.76180   1.000
    C426    C    0.62560   0.10980   0.76180   1.000
    C427    C    0.37440   0.10980   0.23820   1.000
    C428    C    0.12560   0.73820   0.39020   1.000
    C429    C    0.87440   0.26180   0.39020   1.000
    C430    C    0.12560   0.26180   0.60980   1.000
    C431    C    0.87440   0.73820   0.60980   1.000
    C432    C    0.73820   0.39020   0.12560   1.000
    C433    C    0.26180   0.39020   0.87440   1.000
    C434    C    0.26180   0.60980   0.12560   1.000
    C435    C    0.73820   0.60980   0.87440   1.000
    C436    C    0.39020   0.12560   0.73820   1.000
    C437    C    0.39020   0.87440   0.26180   1.000
    C438    C    0.60980   0.12560   0.26180   1.000
    C439    C    0.60980   0.87440   0.73820   1.000
    O440    O    0.72013   0.22541   0.00951   1.000
    O441    O    0.27987   0.77459   0.00951   1.000
    O442    O    0.71310   0.19035   0.03870   1.000
    O443    O    0.71625   0.18735   0.98385   1.000
    O444    O    0.28690   0.80965   0.03870   1.000
    O445    O    0.28375   0.81265   0.98385   1.000
    O446    O    0.98015   0.29685   0.04690   1.000
    O447    O    0.00000   0.29780   0.00000   1.000
    O448    O    0.01985   0.70315   0.04690   1.000
    O449    O    0.00000   0.70220   0.00000   1.000
    O450    O    0.70315   0.04690   0.01985   1.000
    O451    O    0.70365   0.09630   0.04270   1.000
    O452    O    0.70650   0.09390   0.98805   1.000
    O453    O    0.29685   0.95310   0.01985   1.000
    O454    O    0.29635   0.90370   0.04270   1.000
    O455    O    0.29350   0.90610   0.98805   1.000
    O456    O    0.29780   0.00000   0.00000   1.000
    O457    O    0.70220   0.00000   0.00000   1.000
    O458    O    0.28780   0.13920   0.04130   1.000
    O459    O    0.29172   0.09661   0.05769   1.000
    O460    O    0.29350   0.09390   0.01195   1.000
    O461    O    0.71220   0.86080   0.04130   1.000
    O462    O    0.70828   0.90339   0.05769   1.000
    O463    O    0.70650   0.90610   0.01195   1.000
    O464    O    0.71850   0.81515   0.07385   1.000
    O465    O    0.71625   0.81265   0.01615   1.000
    O466    O    0.28150   0.18485   0.07385   1.000
    O467    O    0.28375   0.18735   0.01615   1.000
    O468    O    0.70620   0.14460   0.06820   1.000
    O469    O    0.70890   0.19340   0.09590   1.000
    O470    O    0.29380   0.85540   0.06820   1.000
    O471    O    0.29110   0.80660   0.09590   1.000
    O472    O    0.70092   0.10306   0.08818   1.000
    O473    O    0.29908   0.89694   0.08818   1.000
    O474    O    0.98805   0.70650   0.09390   1.000
    O475    O    0.04270   0.70365   0.09630   1.000
    O476    O    0.01195   0.29350   0.09390   1.000
    O477    O    0.95730   0.29635   0.09630   1.000
    O478    O    0.94231   0.70828   0.09661   1.000
    O479    O    0.05769   0.29172   0.09661   1.000
    O480    O    0.91182   0.29908   0.10306   1.000
    O481    O    0.08818   0.70092   0.10306   1.000
    O482    O    0.26690   0.22587   0.10618   1.000
    O483    O    0.28720   0.18370   0.12753   1.000
    O484    O    0.73310   0.77413   0.10618   1.000
    O485    O    0.71280   0.81630   0.12753   1.000
    O486    O    0.24739   0.27730   0.14471   1.000
    O487    O    0.75260   0.72270   0.14471   1.000
    O488    O    0.95870   0.71220   0.13920   1.000
    O489    O    0.04130   0.28780   0.13920   1.000
    O490    O    0.23884   0.33833   0.14588   1.000
    O491    O    0.76115   0.66166   0.14588   1.000
    O492    O    0.06820   0.70620   0.14460   1.000
    O493    O    0.93180   0.29380   0.14460   1.000
    O494    O    0.28320   0.76230   0.12513   1.000
    O495    O    0.30165   0.80385   0.14773   1.000
    O496    O    0.71680   0.23770   0.12513   1.000
    O497    O    0.69835   0.19615   0.14773   1.000
    O498    O    0.26775   0.70853   0.16154   1.000
    O499    O    0.73224   0.29147   0.16154   1.000
    O500    O    0.26116   0.64588   0.16166   1.000
    O501    O    0.73884   0.35412   0.16166   1.000
    O502    O    0.70092   0.82502   0.19482   1.000
    O503    O    0.29908   0.17498   0.19482   1.000
    O504    O    0.19482   0.29908   0.17498   1.000
    O505    O    0.12753   0.28720   0.18370   1.000
    O506    O    0.80518   0.70091   0.17498   1.000
    O507    O    0.87247   0.71280   0.18370   1.000
    O508    O    0.07385   0.28150   0.18485   1.000
    O509    O    0.01615   0.28375   0.18735   1.000
    O510    O    0.92615   0.71850   0.18485   1.000
    O511    O    0.98385   0.71625   0.18735   1.000
    O512    O    0.68503   0.18976   0.21554   1.000
    O513    O    0.31497   0.81023   0.21554   1.000
    O514    O    0.96130   0.28690   0.19035   1.000
    O515    O    0.90410   0.29110   0.19340   1.000
    O516    O    0.03870   0.71310   0.19035   1.000
    O517    O    0.09590   0.70890   0.19340   1.000
    O518    O    0.78446   0.31497   0.18976   1.000
    O519    O    0.85227   0.30165   0.19615   1.000
    O520    O    0.21554   0.68503   0.18976   1.000
    O521    O    0.14773   0.69835   0.19615   1.000
    O522    O    0.28446   0.31024   0.18503   1.000
    O523    O    0.23224   0.33846   0.20853   1.000
    O524    O    0.23996   0.27135   0.21120   1.000
    O525    O    0.71554   0.68976   0.18503   1.000
    O526    O    0.76775   0.66154   0.20853   1.000
    O527    O    0.35227   0.30385   0.19835   1.000
    O528    O    0.64773   0.69615   0.19835   1.000
    O529    O    0.69482   0.32502   0.20091   1.000
    O530    O    0.74740   0.35529   0.22270   1.000
    O531    O    0.73996   0.28880   0.22864   1.000
    O532    O    0.30518   0.67498   0.20091   1.000
    O533    O    0.25260   0.64471   0.22270   1.000
    O534    O    0.26004   0.71120   0.22864   1.000
    O535    O    0.58818   0.60306   0.20092   1.000
    O536    O    0.41182   0.39694   0.20092   1.000
    O537    O    0.10618   0.26690   0.22587   1.000
    O538    O    0.89382   0.73310   0.22587   1.000
    O539    O    0.50000   0.50000   0.20220   1.000
    O540    O    0.51985   0.54690   0.20315   1.000
    O541    O    0.48015   0.45310   0.20315   1.000
    O542    O    0.45730   0.40370   0.20365   1.000
    O543    O    0.43180   0.35540   0.20620   1.000
    O544    O    0.54270   0.59630   0.20365   1.000
    O545    O    0.56820   0.64460   0.20620   1.000
    O546    O    0.62752   0.31630   0.21280   1.000
    O547    O    0.37247   0.68370   0.21280   1.000
    O548    O    0.48805   0.59390   0.20650   1.000
    O549    O    0.51195   0.40610   0.20650   1.000
    O550    O    0.00951   0.72013   0.22541   1.000
    O551    O    0.99049   0.27987   0.22541   1.000
    O552    O    0.55769   0.40339   0.20828   1.000
    O553    O    0.44231   0.59661   0.20828   1.000
    O554    O    0.40410   0.30660   0.20890   1.000
    O555    O    0.37488   0.26230   0.21680   1.000
    O556    O    0.59590   0.69340   0.20890   1.000
    O557    O    0.62513   0.73770   0.21680   1.000
    O558    O    0.54130   0.36080   0.21220   1.000
    O559    O    0.45870   0.63920   0.21220   1.000
    O560    O    0.46130   0.30965   0.21310   1.000
    O561    O    0.53870   0.69035   0.21310   1.000
    O562    O    0.87487   0.28320   0.23770   1.000
    O563    O    0.12512   0.71680   0.23770   1.000
    O564    O    0.48385   0.68735   0.21625   1.000
    O565    O    0.42615   0.68485   0.21850   1.000
    O566    O    0.51615   0.31265   0.21625   1.000
    O567    O    0.57385   0.31515   0.21850   1.000
    O568    O    0.49049   0.27459   0.22013   1.000
    O569    O    0.50951   0.72541   0.22013   1.000
    O570    O    0.39382   0.72586   0.23310   1.000
    O571    O    0.60618   0.27413   0.23310   1.000
    O572    O    0.33846   0.20853   0.23224   1.000
    O573    O    0.66154   0.79147   0.23224   1.000
    O574    O    0.78320   0.62512   0.26230   1.000
    O575    O    0.21680   0.37488   0.26230   1.000
    O576    O    0.33833   0.14588   0.23884   1.000
    O577    O    0.66166   0.85412   0.23884   1.000
    O578    O    0.72864   0.78880   0.23996   1.000
    O579    O    0.72270   0.85529   0.24740   1.000
    O580    O    0.68976   0.81497   0.28446   1.000
    O581    O    0.27730   0.14471   0.24740   1.000
    O582    O    0.31024   0.18503   0.28446   1.000
    O583    O    0.21120   0.23996   0.27135   1.000
    O584    O    0.78880   0.76004   0.27135   1.000
    O585    O    0.64471   0.22270   0.25260   1.000
    O586    O    0.35529   0.77730   0.25260   1.000
    O587    O    0.76690   0.39382   0.27413   1.000
    O588    O    0.23310   0.60618   0.27413   1.000
    O589    O    0.85529   0.75260   0.27730   1.000
    O590    O    0.14471   0.24739   0.27730   1.000
    O591    O    0.22013   0.49049   0.27459   1.000
    O592    O    0.77986   0.50951   0.27459   1.000
    O593    O    0.77413   0.89382   0.26690   1.000
    O594    O    0.22586   0.10618   0.26690   1.000
    O595    O    0.71120   0.22864   0.26004   1.000
    O596    O    0.22864   0.73996   0.28880   1.000
    O597    O    0.64588   0.16166   0.26116   1.000
    O598    O    0.70853   0.16154   0.26776   1.000
    O599    O    0.67498   0.20091   0.30518   1.000
    O600    O    0.35412   0.83833   0.26116   1.000
    O601    O    0.29147   0.83846   0.26776   1.000
    O602    O    0.32502   0.79908   0.30518   1.000
    O603    O    0.16154   0.73224   0.29147   1.000
    O604    O    0.83846   0.26776   0.29147   1.000
    O605    O    0.23770   0.87487   0.28320   1.000
    O606    O    0.76230   0.12513   0.28320   1.000
    O607    O    0.77459   0.00951   0.27987   1.000
    O608    O    0.22541   0.99049   0.27987   1.000
    O609    O    0.18485   0.07385   0.28150   1.000
    O610    O    0.18370   0.12752   0.28720   1.000
    O611    O    0.81515   0.92615   0.28150   1.000
    O612    O    0.81630   0.87247   0.28720   1.000
    O613    O    0.81265   0.98385   0.28375   1.000
    O614    O    0.80965   0.03870   0.28690   1.000
    O615    O    0.18735   0.01615   0.28375   1.000
    O616    O    0.19035   0.96130   0.28690   1.000
    O617    O    0.86080   0.95870   0.28780   1.000
    O618    O    0.13920   0.04130   0.28780   1.000
    O619    O    0.80165   0.64773   0.30385   1.000
    O620    O    0.79110   0.59590   0.30660   1.000
    O621    O    0.19835   0.35227   0.30385   1.000
    O622    O    0.20890   0.40410   0.30660   1.000
    O623    O    0.80660   0.09590   0.29110   1.000
    O624    O    0.85540   0.06820   0.29380   1.000
    O625    O    0.19340   0.90410   0.29110   1.000
    O626    O    0.14460   0.93180   0.29380   1.000
    O627    O    0.09661   0.05769   0.29172   1.000
    O628    O    0.09390   0.01195   0.29350   1.000
    O629    O    0.90339   0.94231   0.29172   1.000
    O630    O    0.90610   0.98805   0.29350   1.000
    O631    O    0.19615   0.85227   0.30165   1.000
    O632    O    0.80385   0.14773   0.30165   1.000
    O633    O    0.21310   0.46130   0.30965   1.000
    O634    O    0.21625   0.51615   0.31265   1.000
    O635    O    0.78690   0.53870   0.30965   1.000
    O636    O    0.78375   0.48385   0.31265   1.000
    O637    O    0.82502   0.80518   0.29908   1.000
    O638    O    0.17498   0.19482   0.29908   1.000
    O639    O    0.90370   0.04270   0.29635   1.000
    O640    O    0.95310   0.01985   0.29685   1.000
    O641    O    0.09630   0.95730   0.29635   1.000
    O642    O    0.04690   0.98015   0.29685   1.000
    O643    O    0.10306   0.91182   0.29908   1.000
    O644    O    0.89694   0.08818   0.29908   1.000
    O645    O    0.00000   0.00000   0.29780   1.000
    O646    O    0.78150   0.42615   0.31515   1.000
    O647    O    0.78720   0.37247   0.31630   1.000
    O648    O    0.21850   0.57385   0.31515   1.000
    O649    O    0.21280   0.62752   0.31630   1.000
    O650    O    0.18503   0.28446   0.31024   1.000
    O651    O    0.14588   0.23884   0.33833   1.000
    O652    O    0.20853   0.23224   0.33846   1.000
    O653    O    0.81497   0.71553   0.31024   1.000
    O654    O    0.85412   0.76115   0.33833   1.000
    O655    O    0.79147   0.76775   0.33846   1.000
    O656    O    0.18976   0.78446   0.31497   1.000
    O657    O    0.81023   0.21553   0.31497   1.000
    O658    O    0.20091   0.69482   0.32502   1.000
    O659    O    0.16166   0.73884   0.35412   1.000
    O660    O    0.22270   0.74740   0.35529   1.000
    O661    O    0.79908   0.30518   0.32502   1.000
    O662    O    0.83833   0.26116   0.35412   1.000
    O663    O    0.77730   0.25261   0.35529   1.000
    O664    O    0.20620   0.43180   0.35540   1.000
    O665    O    0.79380   0.56820   0.35540   1.000
    O666    O    0.69615   0.80165   0.35227   1.000
    O667    O    0.30385   0.19835   0.35227   1.000
    O668    O    0.78780   0.45870   0.36080   1.000
    O669    O    0.21220   0.54130   0.36080   1.000
    O670    O    0.68370   0.21280   0.37247   1.000
    O671    O    0.31630   0.78720   0.37247   1.000
    O672    O    0.73770   0.78320   0.37488   1.000
    O673    O    0.26230   0.21680   0.37488   1.000
    O674    O    0.69340   0.79110   0.40410   1.000
    O675    O    0.30660   0.20890   0.40410   1.000
    O676    O    0.20092   0.41182   0.39694   1.000
    O677    O    0.20365   0.45730   0.40370   1.000
    O678    O    0.79908   0.58818   0.39694   1.000
    O679    O    0.79635   0.54270   0.40370   1.000
    O680    O    0.20828   0.55769   0.40339   1.000
    O681    O    0.20650   0.51195   0.40610   1.000
    O682    O    0.79172   0.44231   0.40339   1.000
    O683    O    0.79350   0.48805   0.40610   1.000
    O684    O    0.27413   0.76690   0.39382   1.000
    O685    O    0.72586   0.23310   0.39382   1.000
    O686    O    0.60306   0.79908   0.41182   1.000
    O687    O    0.39694   0.20092   0.41182   1.000
    O688    O    0.31515   0.78150   0.42615   1.000
    O689    O    0.68485   0.21850   0.42615   1.000
    O690    O    0.20315   0.48015   0.45310   1.000
    O691    O    0.79685   0.51985   0.45310   1.000
    O692    O    0.40339   0.79172   0.44231   1.000
    O693    O    0.59661   0.20828   0.44231   1.000
    O694    O    0.35540   0.20620   0.43180   1.000
    O695    O    0.40370   0.20365   0.45730   1.000
    O696    O    0.64460   0.79380   0.43180   1.000
    O697    O    0.59630   0.79635   0.45730   1.000
    O698    O    0.69035   0.78690   0.46130   1.000
    O699    O    0.30965   0.21310   0.46130   1.000
    O700    O    0.63920   0.21220   0.45870   1.000
    O701    O    0.68735   0.21625   0.48385   1.000
    O702    O    0.36080   0.78780   0.45870   1.000
    O703    O    0.31265   0.78375   0.48385   1.000
    O704    O    0.59390   0.20650   0.48805   1.000
    O705    O    0.40610   0.79350   0.48805   1.000
    O706    O    0.54690   0.79685   0.48015   1.000
    O707    O    0.50000   0.79780   0.50000   1.000
    O708    O    0.45310   0.20315   0.48015   1.000
    O709    O    0.50000   0.20220   0.50000   1.000
    O710    O    0.59390   0.79350   0.51195   1.000
    O711    O    0.40610   0.20650   0.51195   1.000
    O712    O    0.20220   0.50000   0.50000   1.000
    O713    O    0.79780   0.50000   0.50000   1.000
    O714    O    0.72541   0.77986   0.49049   1.000
    O715    O    0.68735   0.78375   0.51615   1.000
    O716    O    0.27459   0.22013   0.49049   1.000
    O717    O    0.31265   0.21625   0.51615   1.000
    O718    O    0.27459   0.77986   0.50951   1.000
    O719    O    0.72541   0.22013   0.50951   1.000
    O720    O    0.69035   0.21310   0.53870   1.000
    O721    O    0.30965   0.78690   0.53870   1.000
    O722    O    0.20315   0.51985   0.54690   1.000
    O723    O    0.79685   0.48015   0.54690   1.000
    O724    O    0.54690   0.20315   0.51985   1.000
    O725    O    0.59630   0.20365   0.54270   1.000
    O726    O    0.45310   0.79685   0.51985   1.000
    O727    O    0.40370   0.79635   0.54270   1.000
    O728    O    0.36080   0.21220   0.54130   1.000
    O729    O    0.40339   0.20828   0.55769   1.000
    O730    O    0.63920   0.78780   0.54130   1.000
    O731    O    0.59661   0.79172   0.55769   1.000
    O732    O    0.31515   0.21850   0.57385   1.000
    O733    O    0.68485   0.78150   0.57385   1.000
    O734    O    0.64460   0.20620   0.56820   1.000
    O735    O    0.69340   0.20890   0.59590   1.000
    O736    O    0.35540   0.79380   0.56820   1.000
    O737    O    0.30660   0.79110   0.59590   1.000
    O738    O    0.60306   0.20092   0.58818   1.000
    O739    O    0.39694   0.79908   0.58818   1.000
    O740    O    0.79350   0.51195   0.59390   1.000
    O741    O    0.79635   0.45730   0.59630   1.000
    O742    O    0.20650   0.48805   0.59390   1.000
    O743    O    0.20365   0.54270   0.59630   1.000
    O744    O    0.20828   0.44231   0.59661   1.000
    O745    O    0.79172   0.55769   0.59661   1.000
    O746    O    0.79908   0.41182   0.60306   1.000
    O747    O    0.20092   0.58818   0.60306   1.000
    O748    O    0.72586   0.76690   0.60618   1.000
    O749    O    0.68370   0.78720   0.62752   1.000
    O750    O    0.27413   0.23310   0.60618   1.000
    O751    O    0.31630   0.21280   0.62752   1.000
    O752    O    0.77730   0.74740   0.64471   1.000
    O753    O    0.22270   0.25260   0.64471   1.000
    O754    O    0.21220   0.45870   0.63920   1.000
    O755    O    0.78780   0.54130   0.63920   1.000
    O756    O    0.16166   0.26116   0.64588   1.000
    O757    O    0.83833   0.73884   0.64588   1.000
    O758    O    0.79380   0.43180   0.64460   1.000
    O759    O    0.20620   0.56820   0.64460   1.000
    O760    O    0.73770   0.21680   0.62512   1.000
    O761    O    0.69615   0.19835   0.64773   1.000
    O762    O    0.26230   0.78320   0.62512   1.000
    O763    O    0.30385   0.80165   0.64773   1.000
    O764    O    0.79147   0.23224   0.66154   1.000
    O765    O    0.20853   0.76775   0.66154   1.000
    O766    O    0.85412   0.23884   0.66166   1.000
    O767    O    0.14588   0.76115   0.66166   1.000
    O768    O    0.67498   0.79908   0.69482   1.000
    O769    O    0.32502   0.20091   0.69482   1.000
    O770    O    0.79908   0.69482   0.67498   1.000
    O771    O    0.78720   0.62753   0.68370   1.000
    O772    O    0.20091   0.30518   0.67498   1.000
    O773    O    0.21280   0.37247   0.68370   1.000
    O774    O    0.78150   0.57385   0.68485   1.000
    O775    O    0.78375   0.51615   0.68735   1.000
    O776    O    0.21850   0.42615   0.68485   1.000
    O777    O    0.21625   0.48385   0.68735   1.000
    O778    O    0.68976   0.18503   0.71553   1.000
    O779    O    0.31023   0.81497   0.71553   1.000
    O780    O    0.78690   0.46130   0.69035   1.000
    O781    O    0.79110   0.40410   0.69340   1.000
    O782    O    0.21310   0.53870   0.69035   1.000
    O783    O    0.20890   0.59590   0.69340   1.000
    O784    O    0.81497   0.28446   0.68976   1.000
    O785    O    0.80165   0.35227   0.69615   1.000
    O786    O    0.18503   0.71554   0.68976   1.000
    O787    O    0.19835   0.64773   0.69615   1.000
    O788    O    0.18976   0.21554   0.68503   1.000
    O789    O    0.16154   0.26775   0.70853   1.000
    O790    O    0.22864   0.26004   0.71120   1.000
    O791    O    0.81023   0.78446   0.68503   1.000
    O792    O    0.83846   0.73224   0.70853   1.000
    O793    O    0.19615   0.14773   0.69835   1.000
    O794    O    0.80385   0.85227   0.69835   1.000
    O795    O    0.17498   0.80518   0.70091   1.000
    O796    O    0.14471   0.75260   0.72270   1.000
    O797    O    0.82502   0.19482   0.70091   1.000
    O798    O    0.85529   0.24739   0.72270   1.000
    O799    O    0.89694   0.91182   0.70092   1.000
    O800    O    0.10306   0.08818   0.70092   1.000
    O801    O    0.76690   0.60618   0.72586   1.000
    O802    O    0.23310   0.39382   0.72586   1.000
    O803    O    0.00000   0.00000   0.70220   1.000
    O804    O    0.04690   0.01985   0.70315   1.000
    O805    O    0.95310   0.98015   0.70315   1.000
    O806    O    0.90370   0.95730   0.70365   1.000
    O807    O    0.85540   0.93180   0.70620   1.000
    O808    O    0.09630   0.04270   0.70365   1.000
    O809    O    0.14460   0.06820   0.70620   1.000
    O810    O    0.09390   0.98805   0.70650   1.000
    O811    O    0.18370   0.87247   0.71280   1.000
    O812    O    0.81630   0.12752   0.71280   1.000
    O813    O    0.90610   0.01195   0.70650   1.000
    O814    O    0.77986   0.49049   0.72541   1.000
    O815    O    0.22013   0.50951   0.72541   1.000
    O816    O    0.90339   0.05769   0.70828   1.000
    O817    O    0.09661   0.94231   0.70828   1.000
    O818    O    0.80660   0.90410   0.70890   1.000
    O819    O    0.76230   0.87487   0.71680   1.000
    O820    O    0.19340   0.09590   0.70890   1.000
    O821    O    0.23770   0.12512   0.71680   1.000
    O822    O    0.13920   0.95870   0.71220   1.000
    O823    O    0.86080   0.04130   0.71220   1.000
    O824    O    0.80965   0.96130   0.71310   1.000
    O825    O    0.19035   0.03870   0.71310   1.000
    O826    O    0.78320   0.37487   0.73770   1.000
    O827    O    0.21680   0.62513   0.73770   1.000
    O828    O    0.18735   0.98385   0.71625   1.000
    O829    O    0.18485   0.92615   0.71850   1.000
    O830    O    0.81265   0.01615   0.71625   1.000
    O831    O    0.81515   0.07385   0.71850   1.000
    O832    O    0.22541   0.00951   0.72013   1.000
    O833    O    0.77459   0.99049   0.72013   1.000
    O834    O    0.77413   0.10618   0.73310   1.000
    O835    O    0.22586   0.89382   0.73310   1.000
    O836    O    0.70853   0.83846   0.73224   1.000
    O837    O    0.29147   0.16154   0.73224   1.000
    O838    O    0.12512   0.28320   0.76230   1.000
    O839    O    0.87487   0.71680   0.76230   1.000
    O840    O    0.35412   0.16166   0.73884   1.000
    O841    O    0.64588   0.83833   0.73884   1.000
    O842    O    0.71120   0.77135   0.73996   1.000
    O843    O    0.64471   0.77730   0.74740   1.000
    O844    O    0.68503   0.81023   0.78446   1.000
    O845    O    0.35529   0.22270   0.74740   1.000
    O846    O    0.31497   0.18976   0.78446   1.000
    O847    O    0.73996   0.71120   0.77135   1.000
    O848    O    0.26004   0.28880   0.77135   1.000
    O849    O    0.27730   0.85529   0.75260   1.000
    O850    O    0.72270   0.14471   0.75260   1.000
    O851    O    0.10618   0.73310   0.77413   1.000
    O852    O    0.89382   0.26690   0.77413   1.000
    O853    O    0.25260   0.35529   0.77730   1.000
    O854    O    0.74740   0.64471   0.77730   1.000
    O855    O    0.00951   0.27987   0.77459   1.000
    O856    O    0.99049   0.72013   0.77459   1.000
    O857    O    0.60618   0.72586   0.76690   1.000
    O858    O    0.39382   0.27413   0.76690   1.000
    O859    O    0.72864   0.21120   0.76004   1.000
    O860    O    0.76004   0.27135   0.78880   1.000
    O861    O    0.27135   0.78880   0.76004   1.000
    O862    O    0.23996   0.72864   0.78880   1.000
    O863    O    0.33833   0.85412   0.76115   1.000
    O864    O    0.33846   0.79147   0.76775   1.000
    O865    O    0.29908   0.82502   0.80518   1.000
    O866    O    0.66166   0.14588   0.76115   1.000
    O867    O    0.66154   0.20853   0.76775   1.000
    O868    O    0.70092   0.17498   0.80518   1.000
    O869    O    0.23225   0.66154   0.79147   1.000
    O870    O    0.76775   0.33846   0.79147   1.000
    O871    O    0.37488   0.73770   0.78320   1.000
    O872    O    0.62513   0.26230   0.78320   1.000
    O873    O    0.50951   0.27459   0.77986   1.000
    O874    O    0.49049   0.72541   0.77986   1.000
    O875    O    0.42615   0.31515   0.78150   1.000
    O876    O    0.37247   0.31630   0.78720   1.000
    O877    O    0.57385   0.68485   0.78150   1.000
    O878    O    0.62753   0.68370   0.78720   1.000
    O879    O    0.48385   0.31265   0.78375   1.000
    O880    O    0.53870   0.30965   0.78690   1.000
    O881    O    0.51615   0.68735   0.78375   1.000
    O882    O    0.46130   0.69035   0.78690   1.000
    O883    O    0.54130   0.63920   0.78780   1.000
    O884    O    0.45870   0.36080   0.78780   1.000
    O885    O    0.14773   0.30165   0.80385   1.000
    O886    O    0.09590   0.29110   0.80660   1.000
    O887    O    0.85227   0.69835   0.80385   1.000
    O888    O    0.90410   0.70890   0.80660   1.000
    O889    O    0.40410   0.69340   0.79110   1.000
    O890    O    0.43180   0.64460   0.79380   1.000
    O891    O    0.59590   0.30660   0.79110   1.000
    O892    O    0.56820   0.35540   0.79380   1.000
    O893    O    0.55769   0.59661   0.79172   1.000
    O894    O    0.51195   0.59390   0.79350   1.000
    O895    O    0.44231   0.40339   0.79172   1.000
    O896    O    0.48805   0.40610   0.79350   1.000
    O897    O    0.64773   0.30385   0.80165   1.000
    O898    O    0.35227   0.69615   0.80165   1.000
    O899    O    0.03870   0.28690   0.80965   1.000
    O900    O    0.98385   0.28375   0.81265   1.000
    O901    O    0.96130   0.71310   0.80965   1.000
    O902    O    0.01615   0.71625   0.81265   1.000
    O903    O    0.54270   0.40370   0.79635   1.000
    O904    O    0.51985   0.45310   0.79685   1.000
    O905    O    0.45730   0.59630   0.79635   1.000
    O906    O    0.48015   0.54690   0.79685   1.000
    O907    O    0.69482   0.67498   0.79908   1.000
    O908    O    0.30518   0.32502   0.79908   1.000
    O909    O    0.41182   0.60306   0.79908   1.000
    O910    O    0.58818   0.39694   0.79908   1.000
    O911    O    0.50000   0.50000   0.79780   1.000
    O912    O    0.07385   0.71850   0.81515   1.000
    O913    O    0.12752   0.71280   0.81630   1.000
    O914    O    0.92615   0.28150   0.81515   1.000
    O915    O    0.87247   0.28720   0.81630   1.000
    O916    O    0.21553   0.31497   0.81023   1.000
    O917    O    0.26116   0.35412   0.83833   1.000
    O918    O    0.26775   0.29147   0.83846   1.000
    O919    O    0.78446   0.68503   0.81023   1.000
    O920    O    0.73884   0.64588   0.83833   1.000
    O921    O    0.73225   0.70853   0.83846   1.000
    O922    O    0.71554   0.31024   0.81497   1.000
    O923    O    0.28446   0.68976   0.81497   1.000
    O924    O    0.80518   0.29908   0.82502   1.000
    O925    O    0.76115   0.33833   0.85412   1.000
    O926    O    0.75260   0.27730   0.85529   1.000
    O927    O    0.19482   0.70092   0.82502   1.000
    O928    O    0.23884   0.66166   0.85412   1.000
    O929    O    0.24739   0.72270   0.85529   1.000
    O930    O    0.93180   0.70620   0.85540   1.000
    O931    O    0.06820   0.29380   0.85540   1.000
    O932    O    0.69835   0.80385   0.85227   1.000
    O933    O    0.30165   0.19615   0.85227   1.000
    O934    O    0.95870   0.28780   0.86080   1.000
    O935    O    0.04130   0.71220   0.86080   1.000
    O936    O    0.28720   0.81630   0.87247   1.000
    O937    O    0.71280   0.18370   0.87247   1.000
    O938    O    0.28320   0.23770   0.87487   1.000
    O939    O    0.71680   0.76230   0.87487   1.000
    O940    O    0.29110   0.19340   0.90410   1.000
    O941    O    0.70890   0.80660   0.90410   1.000
    O942    O    0.91182   0.70092   0.89694   1.000
    O943    O    0.95730   0.70365   0.90370   1.000
    O944    O    0.08818   0.29908   0.89694   1.000
    O945    O    0.04270   0.29635   0.90370   1.000
    O946    O    0.94231   0.29172   0.90339   1.000
    O947    O    0.98805   0.29350   0.90610   1.000
    O948    O    0.05769   0.70828   0.90339   1.000
    O949    O    0.01195   0.70650   0.90610   1.000
    O950    O    0.73310   0.22587   0.89382   1.000
    O951    O    0.26690   0.77413   0.89382   1.000
    O952    O    0.29908   0.10306   0.91182   1.000
    O953    O    0.70092   0.89694   0.91182   1.000
    O954    O    0.71850   0.18485   0.92615   1.000
    O955    O    0.28150   0.81515   0.92615   1.000
    O956    O    0.01985   0.29685   0.95310   1.000
    O957    O    0.98015   0.70315   0.95310   1.000
    O958    O    0.70828   0.09661   0.94231   1.000
    O959    O    0.29172   0.90339   0.94231   1.000
    O960    O    0.29380   0.14460   0.93180   1.000
    O961    O    0.29635   0.09630   0.95730   1.000
    O962    O    0.70620   0.85540   0.93180   1.000
    O963    O    0.70365   0.90370   0.95730   1.000
    O964    O    0.28690   0.19035   0.96130   1.000
    O965    O    0.71310   0.80965   0.96130   1.000
    O966    O    0.71220   0.13920   0.95870   1.000
    O967    O    0.28780   0.86080   0.95870   1.000
    O968    O    0.70315   0.95310   0.98015   1.000
    O969    O    0.29685   0.04690   0.98015   1.000
    O970    O    0.27987   0.22541   0.99049   1.000
    O971    O    0.72014   0.77459   0.99049   1.000
    O972    O    0.21120   0.76004   0.72864   1.000
    O973    O    0.78880   0.23996   0.72864   1.000
    O974    O    0.76004   0.72864   0.21120   1.000
    O975    O    0.27135   0.21120   0.23996   1.000
    O976    O    0.28880   0.77135   0.26004   1.000
    O977    O    0.77135   0.26004   0.28880   1.000
    O978    O    0.28880   0.22864   0.73996   1.000
    O979    O    0.77135   0.73996   0.71120   1.000
loop_
    _geom_bond_atom_site_label_1
    _geom_bond_atom_site_label_2
    _geom_bond_distance
    _geom_bond_site_symmetry_2
    _ccdc_geom_bond_type
    C195   O440      0.46536      .   S
    C172   O440      0.46536      .   S
    C197   O441      0.46536      .   S
    C174   O441      0.46536      .   S
    C172   O442      0.69470      .   S
    C264   O442      0.69470      .   S
    C172   O443      0.69251  1_554   S
    C218   O443      0.69251      .   S
    C174   O444      0.69470      .   S
    C266   O444      0.69470      .   S
    C174   O445      0.69251  1_554   S
    C220   O445      0.69251      .   S
    C330   O446      0.72324      .   S
    C353   O446      0.72324      .   S
    C330   O447      0.60534  1_655   S
    C331   O447      0.60534  1_556   S
    C329   O448      0.72324      .   S
    C352   O448      0.72324      .   S
    C329   O449      0.60534      .   S
    C332   O449      0.60534  1_656   S
    C356   O450      0.72324      .   S
    C333   O450      0.72324      .   S
    C356   O451      0.68991      .   S
    C379   O451      0.68991      .   S
    C356   O452      0.68609  1_554   S
    C287   O452      0.68609      .   S
    C358   O453      0.72324      .   S
    C335   O453      0.72324      .   S
    C358   O454      0.68991      .   S
    C381   O454      0.68991      .   S
    C358   O455      0.68609  1_554   S
    C289   O455      0.68609      .   S
    C335   O456      0.60534  1_565   S
    C334   O456      0.60534  1_556   S
    C333   O457      0.60534      .   S
    C336   O457      0.60534  1_566   S
    C288   O458      0.68516      .   S
    C219   O458      0.68516      .   S
    C288   O459      0.46556      .   S
    C311   O459      0.46556      .   S
    C288   O460      0.68609      .   S
    C357   O460      0.68609  1_556   S
    C290   O461      0.68516      .   S
    C221   O461      0.68516      .   S
    C290   O462      0.46556      .   S
    C313   O462      0.46556      .   S
    C290   O463      0.68609      .   S
    C359   O463      0.68609  1_556   S
    C221   O464      0.75322      .   S
    C152   O464      0.75322      .   S
    C221   O465      0.69251      .   S
    C175   O465      0.69251  1_556   S
    C219   O466      0.75322      .   S
    C150   O466      0.75322      .   S
    C219   O467      0.69251      .   S
    C173   O467      0.69251  1_556   S
    C264   O468      0.69736      .   S
    C379   O468      0.69736      .   S
    C264   O469      0.73674      .   S
    C241   O469      0.73674      .   S
    C266   O470      0.69736      .   S
    C381   O470      0.69736      .   S
    C266   O471      0.73674      .   S
    C243   O471      0.73674      .   S
    C379   O472      0.46465      .   S
    C402   O472      0.46465      .   S
    C381   O473      0.46465      .   S
    C404   O473      0.46465      .   S
    C352   O474      0.68609  1_455   S
    C283   O474      0.68609      .   S
    C352   O475      0.68991      .   S
    C375   O475      0.68991      .   S
    C353   O476      0.68609  1_655   S
    C284   O476      0.68609      .   S
    C353   O477      0.68991      .   S
    C376   O477      0.68991      .   S
    C306   O478      0.46556      .   S
    C283   O478      0.46556      .   S
    C307   O479      0.46556      .   S
    C284   O479      0.46556      .   S
    C399   O480      0.46465      .   S
    C376   O480      0.46465      .   S
    C398   O481      0.46465      .   S
    C375   O481      0.46465      .   S
    C150   O482      0.63293      .   S
    C104   O482      0.63293      .   S
    C150   O483      0.63198      .   S
    C58    O483      0.63198      .   S
    C152   O484      0.63293      .   S
    C106   O484      0.63293      .   S
    C152   O485      0.63198      .   S
    C60    O485      0.63198      .   S
    C104   O486      0.99646      .   S
    C21    O486      0.99646      .   S
    C106   O487      0.99646      .   S
    C20    O487      0.99646      .   S
    C283   O488      0.68516      .   S
    C214   O488      0.68516      .   S
    C284   O489      0.68516      .   S
    C215   O489      0.68516      .   S
    C419   O490      1.11642      .   S
    C21    O490      1.11642      .   S
    C418   O491      1.11642      .   S
    C20    O491      1.11642      .   S
    C375   O492      0.69736      .   S
    C260   O492      0.69736      .   S
    C376   O493      0.69736      .   S
    C261   O493      0.69736      .   S
    C243   O494      0.62169      .   S
    C82    O494      0.62169      .   S
    C243   O495      0.63127      .   S
    C128   O495      0.63127      .   S
    C241   O496      0.62169      .   S
    C80    O496      0.62169      .   S
    C241   O497      0.63127      .   S
    C126   O497      0.63127      .   S
    C82    O498      0.99516      .   S
    C36    O498      0.99516      .   S
    C80    O499      0.99516      .   S
    C34    O499      0.99516      .   S
    C434   O500      1.11642      .   S
    C36    O500      1.11642      .   S
    C432   O501      1.11642      .   S
    C34    O501      1.11642      .   S
    C60    O502      0.99181      .   S
    C26    O502      0.99181      .   S
    C58    O503      0.99181      .   S
    C29    O503      0.99181      .   S
    C54    O504      0.99181      .   S
    C21    O504      0.99181      .   S
    C54    O505      0.63198      .   S
    C146   O505      0.63198      .   S
    C53    O506      0.99181      .   S
    C20    O506      0.99181      .   S
    C53    O507      0.63198      .   S
    C145   O507      0.63198      .   S
    C215   O508      0.75322      .   S
    C146   O508      0.75322      .   S
    C215   O509      0.69251      .   S
    C169   O509      0.69251  1_655   S
    C214   O510      0.75322      .   S
    C145   O510      0.75322      .   S
    C214   O511      0.69251      .   S
    C168   O511      0.69251  1_455   S
    C126   O512      1.00174      .   S
    C40    O512      1.00174      .   S
    C128   O513      1.00174      .   S
    C39    O513      1.00174      .   S
    C261   O514      0.69470      .   S
    C169   O514      0.69470      .   S
    C261   O515      0.73674      .   S
    C238   O515      0.73674      .   S
    C260   O516      0.69470      .   S
    C168   O516      0.69470      .   S
    C260   O517      0.73674      .   S
    C237   O517      0.73674      .   S
    C123   O518      1.00174      .   S
    C34    O518      1.00174      .   S
    C123   O519      0.63127      .   S
    C238   O519      0.63127      .   S
    C122   O520      1.00174      .   S
    C36    O520      1.00174      .   S
    C122   O521      0.63127      .   S
    C237   O521      0.63127      .   S
    C21    O522      1.00174      .   S
    C121   O522      1.00174      .   S
    C21    O523      0.99516      .   S
    C67    O523      0.99516      .   S
    C21    O524      0.93122      .   S
    C412   O524      0.93122      .   S
    C20    O525      1.00174      .   S
    C118   O525      1.00174      .   S
    C20    O526      0.99516      .   S
    C66    O526      0.99516      .   S
    C121   O527      0.63127      .   S
    C236   O527      0.63127      .   S
    C118   O528      0.63127      .   S
    C233   O528      0.63127      .   S
    C34    O529      0.99181      .   S
    C52    O529      0.99181      .   S
    C34    O530      0.99646      .   S
    C89    O530      0.99646      .   S
    C34    O531      0.93122      .   S
    C414   O531      0.93122      .   S
    C36    O532      0.99181      .   S
    C49    O532      0.99181      .   S
    C36    O533      0.99646      .   S
    C90    O533      0.99646      .   S
    C36    O534      0.93122      .   S
    C413   O534      0.93122      .   S
    C394   O535      0.46465      .   S
    C371   O535      0.46465      .   S
    C397   O536      0.46465      .   S
    C374   O536      0.46465      .   S
    C146   O537      0.63293      .   S
    C100   O537      0.63293      .   S
    C145   O538      0.63293      .   S
    C99    O538      0.63293      .   S
    C325   O539      0.60534      .   S
    C328   O539      0.60534      .   S
    C325   O540      0.72324      .   S
    C348   O540      0.72324      .   S
    C328   O541      0.72324      .   S
    C351   O541      0.72324      .   S
    C374   O542      0.68991      .   S
    C351   O542      0.68991      .   S
    C374   O543      0.69736      .   S
    C259   O543      0.69736      .   S
    C371   O544      0.68991      .   S
    C348   O544      0.68991      .   S
    C371   O545      0.69736      .   S
    C256   O545      0.69736      .   S
    C52    O546      0.63198      .   S
    C144   O546      0.63198      .   S
    C49    O547      0.63198      .   S
    C141   O547      0.63198      .   S
    C348   O548      0.68609      .   S
    C279   O548      0.68609      .   S
    C351   O549      0.68609      .   S
    C282   O549      0.68609      .   S
    C168   O550      0.46536      .   S
    C191   O550      0.46536      .   S
    C169   O551      0.46536      .   S
    C192   O551      0.46536      .   S
    C305   O552      0.46556      .   S
    C282   O552      0.46556      .   S
    C302   O553      0.46556      .   S
    C279   O553      0.46556      .   S
    C236   O554      0.73674      .   S
    C259   O554      0.73674      .   S
    C236   O555      0.62169      .   S
    C75    O555      0.62169      .   S
    C233   O556      0.73674      .   S
    C256   O556      0.73674      .   S
    C233   O557      0.62169      .   S
    C72    O557      0.62169      .   S
    C282   O558      0.68516      .   S
    C213   O558      0.68516      .   S
    C279   O559      0.68516      .   S
    C210   O559      0.68516      .   S
    C259   O560      0.69470      .   S
    C167   O560      0.69470      .   S
    C256   O561      0.69470      .   S
    C164   O561      0.69470      .   S
    C238   O562      0.62169      .   S
    C77    O562      0.62169      .   S
    C237   O563      0.62169      .   S
    C76    O563      0.62169      .   S
    C210   O564      0.69251      .   S
    C164   O564      0.69251      .   S
    C210   O565      0.75322      .   S
    C141   O565      0.75322      .   S
    C213   O566      0.69251      .   S
    C167   O566      0.69251      .   S
    C213   O567      0.75322      .   S
    C144   O567      0.75322      .   S
    C167   O568      0.46536      .   S
    C190   O568      0.46536      .   S
    C164   O569      0.46536      .   S
    C187   O569      0.46536      .   S
    C141   O570      0.63293      .   S
    C95    O570      0.63293      .   S
    C144   O571      0.63293      .   S
    C98    O571      0.63293      .   S
    C75    O572      0.99516      .   S
    C29    O572      0.99516      .   S
    C72    O573      0.99516      .   S
    C26    O573      0.99516      .   S
    C66    O574      0.62169      .   S
    C227   O574      0.62169      .   S
    C67    O575      0.62169      .   S
    C228   O575      0.62169      .   S
    C427   O576      1.11642      .   S
    C29    O576      1.11642      .   S
    C424   O577      1.11642      .   S
    C26    O577      1.11642      .   S
    C26    O578      0.93122      .   S
    C411   O578      0.93122      .   S
    C26    O579      0.99646      .   S
    C109   O579      0.99646      .   S
    C26    O580      1.00174      .   S
    C115   O580      1.00174      .   S
    C29    O581      0.99646      .   S
    C108   O581      0.99646      .   S
    C29    O582      1.00174      .   S
    C117   O582      1.00174      .   S
    C412   O583      0.93122      .   S
    C25    O583      0.93122      .   S
    C411   O584      0.93122      .   S
    C23    O584      0.93122      .   S
    C98    O585      0.99646      .   S
    C40    O585      0.99646      .   S
    C95    O586      0.99646      .   S
    C39    O586      0.99646      .   S
    C89    O587      0.63293      .   S
    C135   O587      0.63293      .   S
    C90    O588      0.63293      .   S
    C136   O588      0.63293      .   S
    C99    O589      0.99646      .   S
    C23    O589      0.99646      .   S
    C100   O590      0.99646      .   S
    C25    O590      0.99646      .   S
    C182   O591      0.46536      .   S
    C159   O591      0.46536      .   S
    C181   O592      0.46536      .   S
    C158   O592      0.46536      .   S
    C109   O593      0.63293      .   S
    C155   O593      0.63293      .   S
    C108   O594      0.63293      .   S
    C154   O594      0.63293      .   S
    C414   O595      0.93122      .   S
    C40    O595      0.93122      .   S
    C413   O596      0.93122      .   S
    C30    O596      0.93122      .   S
    C40    O597      1.11642      .   S
    C438   O597      1.11642      .   S
    C40    O598      0.99516      .   S
    C86    O598      0.99516      .   S
    C40    O599      0.99181      .   S
    C45    O599      0.99181      .   S
    C39    O600      1.11642      .   S
    C437   O600      1.11642      .   S
    C39    O601      0.99516      .   S
    C85    O601      0.99516      .   S
    C39    O602      0.99181      .   S
    C47    O602      0.99181      .   S
    C76    O603      0.99516      .   S
    C30    O603      0.99516      .   S
    C77    O604      0.99516      .   S
    C31    O604      0.99516      .   S
    C85    O605      0.62169      .   S
    C246   O605      0.62169      .   S
    C86    O606      0.62169      .   S
    C247   O606      0.62169      .   S
    C201   O607      0.46536      .   S
    C178   O607      0.46536      .   S
    C200   O608      0.46536      .   S
    C177   O608      0.46536      .   S
    C154   O609      0.75322      .   S
    C223   O609      0.75322      .   S
    C154   O610      0.63198      .   S
    C62    O610      0.63198      .   S
    C155   O611      0.75322      .   S
    C224   O611      0.75322      .   S
    C155   O612      0.63198      .   S
    C63    O612      0.63198      .   S
    C178   O613      0.69251  1_545   S
    C224   O613      0.69251      .   S
    C178   O614      0.69470      .   S
    C270   O614      0.69470      .   S
    C177   O615      0.69251  1_565   S
    C223   O615      0.69251      .   S
    C177   O616      0.69470      .   S
    C269   O616      0.69470      .   S
    C224   O617      0.68516      .   S
    C293   O617      0.68516      .   S
    C223   O618      0.68516      .   S
    C292   O618      0.68516      .   S
    C227   O619      0.63127      .   S
    C112   O619      0.63127      .   S
    C227   O620      0.73674      .   S
    C250   O620      0.73674      .   S
    C228   O621      0.63127      .   S
    C113   O621      0.63127      .   S
    C228   O622      0.73674      .   S
    C251   O622      0.73674      .   S
    C270   O623      0.73674      .   S
    C247   O623      0.73674      .   S
    C270   O624      0.69736      .   S
    C385   O624      0.69736      .   S
    C269   O625      0.73674      .   S
    C246   O625      0.73674      .   S
    C269   O626      0.69736      .   S
    C384   O626      0.69736      .   S
    C292   O627      0.46556      .   S
    C315   O627      0.46556      .   S
    C292   O628      0.68609      .   S
    C361   O628      0.68609  1_565   S
    C293   O629      0.46556      .   S
    C316   O629      0.46556      .   S
    C293   O630      0.68609      .   S
    C362   O630      0.68609  1_545   S
    C246   O631      0.63127      .   S
    C131   O631      0.63127      .   S
    C247   O632      0.63127      .   S
    C132   O632      0.63127      .   S
    C159   O633      0.69470      .   S
    C251   O633      0.69470      .   S
    C159   O634      0.69251      .   S
    C205   O634      0.69251      .   S
    C158   O635      0.69470      .   S
    C250   O635      0.69470      .   S
    C158   O636      0.69251      .   S
    C204   O636      0.69251      .   S
    C63    O637      0.99181      .   S
    C23    O637      0.99181      .   S
    C62    O638      0.99181      .   S
    C25    O638      0.99181      .   S
    C362   O639      0.68991      .   S
    C385   O639      0.68991      .   S
    C362   O640      0.72324      .   S
    C339   O640      0.72324      .   S
    C361   O641      0.68991      .   S
    C384   O641      0.68991      .   S
    C361   O642      0.72324      .   S
    C338   O642      0.72324      .   S
    C384   O643      0.46465      .   S
    C407   O643      0.46465      .   S
    C385   O644      0.46465      .   S
    C408   O644      0.46465      .   S
    C339   O645      0.60534  1_655   S
    C338   O645      0.60534  1_565   S
    C135   O646      0.75322      .   S
    C204   O646      0.75322      .   S
    C135   O647      0.63198      .   S
    C43    O647      0.63198      .   S
    C136   O648      0.75322      .   S
    C205   O648      0.75322      .   S
    C136   O649      0.63198      .   S
    C44    O649      0.63198      .   S
    C25    O650      1.00174      .   S
    C113   O650      1.00174      .   S
    C25    O651      1.11642      .   S
    C423   O651      1.11642      .   S
    C25    O652      0.99516      .   S
    C71    O652      0.99516      .   S
    C23    O653      1.00174      .   S
    C112   O653      1.00174      .   S
    C23    O654      1.11642      .   S
    C421   O654      1.11642      .   S
    C23    O655      0.99516      .   S
    C69    O655      0.99516      .   S
    C131   O656      1.00174      .   S
    C30    O656      1.00174      .   S
    C132   O657      1.00174      .   S
    C31    O657      1.00174      .   S
    C30    O658      0.99181      .   S
    C44    O658      0.99181      .   S
    C30    O659      1.11642      .   S
    C428   O659      1.11642      .   S
    C30    O660      0.99646      .   S
    C93    O660      0.99646      .   S
    C31    O661      0.99181      .   S
    C43    O661      0.99181      .   S
    C31    O662      1.11642      .   S
    C429   O662      1.11642      .   S
    C31    O663      0.99646      .   S
    C91    O663      0.99646      .   S
    C251   O664      0.69736      .   S
    C366   O664      0.69736      .   S
    C250   O665      0.69736      .   S
    C365   O665      0.69736      .   S
    C115   O666      0.63127      .   S
    C230   O666      0.63127      .   S
    C117   O667      0.63127      .   S
    C232   O667      0.63127      .   S
    C204   O668      0.68516      .   S
    C273   O668      0.68516      .   S
    C205   O669      0.68516      .   S
    C274   O669      0.68516      .   S
    C45    O670      0.63198      .   S
    C137   O670      0.63198      .   S
    C47    O671      0.63198      .   S
    C139   O671      0.63198      .   S
    C69    O672      0.62169      .   S
    C230   O672      0.62169      .   S
    C71    O673      0.62169      .   S
    C232   O673      0.62169      .   S
    C230   O674      0.73674      .   S
    C253   O674      0.73674      .   S
    C232   O675      0.73674      .   S
    C255   O675      0.73674      .   S
    C366   O676      0.46465      .   S
    C389   O676      0.46465      .   S
    C366   O677      0.68991      .   S
    C343   O677      0.68991      .   S
    C365   O678      0.46465      .   S
    C388   O678      0.46465      .   S
    C365   O679      0.68991      .   S
    C342   O679      0.68991      .   S
    C274   O680      0.46556      .   S
    C297   O680      0.46556      .   S
    C274   O681      0.68609      .   S
    C343   O681      0.68609      .   S
    C273   O682      0.46556      .   S
    C296   O682      0.46556      .   S
    C273   O683      0.68609      .   S
    C342   O683      0.68609      .   S
    C93    O684      0.63293      .   S
    C139   O684      0.63293      .   S
    C91    O685      0.63293      .   S
    C137   O685      0.63293      .   S
    C391   O686      0.46465      .   S
    C368   O686      0.46465      .   S
    C393   O687      0.46465      .   S
    C370   O687      0.46465      .   S
    C139   O688      0.75322      .   S
    C208   O688      0.75322      .   S
    C137   O689      0.75322      .   S
    C206   O689      0.75322      .   S
    C343   O690      0.72324      .   S
    C320   O690      0.72324      .   S
    C342   O691      0.72324      .   S
    C319   O691      0.72324      .   S
    C300   O692      0.46556      .   S
    C277   O692      0.46556      .   S
    C298   O693      0.46556      .   S
    C275   O693      0.46556      .   S
    C370   O694      0.69736      .   S
    C255   O694      0.69736      .   S
    C370   O695      0.68991      .   S
    C347   O695      0.68991      .   S
    C368   O696      0.69736      .   S
    C253   O696      0.69736      .   S
    C368   O697      0.68991      .   S
    C345   O697      0.68991      .   S
    C253   O698      0.69470      .   S
    C161   O698      0.69470      .   S
    C255   O699      0.69470      .   S
    C163   O699      0.69470      .   S
    C206   O700      0.68516      .   S
    C275   O700      0.68516      .   S
    C206   O701      0.69251      .   S
    C160   O701      0.69251      .   S
    C208   O702      0.68516      .   S
    C277   O702      0.68516      .   S
    C208   O703      0.69251      .   S
    C162   O703      0.69251      .   S
    C275   O704      0.68609      .   S
    C344   O704      0.68609      .   S
    C277   O705      0.68609      .   S
    C346   O705      0.68609      .   S
    C322   O706      0.72324      .   S
    C345   O706      0.72324      .   S
    C322   O707      0.60534      .   S
    C323   O707      0.60534      .   S
    C324   O708      0.72324      .   S
    C347   O708      0.72324      .   S
    C324   O709      0.60534      .   S
    C321   O709      0.60534      .   S
    C345   O710      0.68609      .   S
    C276   O710      0.68609      .   S
    C347   O711      0.68609      .   S
    C278   O711      0.68609      .   S
    C320   O712      0.60534      .   S
    C13    O712      0.60534      .   S
    C319   O713      0.60534      .   S
    C318   O713      0.60534      .   S
    C161   O714      0.46536      .   S
    C184   O714      0.46536      .   S
    C161   O715      0.69251      .   S
    C207   O715      0.69251      .   S
    C163   O716      0.46536      .   S
    C186   O716      0.46536      .   S
    C163   O717      0.69251      .   S
    C209   O717      0.69251      .   S
    C185   O718      0.46536      .   S
    C162   O718      0.46536      .   S
    C183   O719      0.46536      .   S
    C160   O719      0.46536      .   S
    C160   O720      0.69470      .   S
    C252   O720      0.69470      .   S
    C162   O721      0.69470      .   S
    C254   O721      0.69470      .   S
    C13    O722      0.72324      .   S
    C14    O722      0.72324      .   S
    C318   O723      0.72324      .   S
    C341   O723      0.72324      .   S
    C344   O724      0.72324      .   S
    C321   O724      0.72324      .   S
    C344   O725      0.68991      .   S
    C367   O725      0.68991      .   S
    C346   O726      0.72324      .   S
    C323   O726      0.72324      .   S
    C346   O727      0.68991      .   S
    C369   O727      0.68991      .   S
    C278   O728      0.68516      .   S
    C209   O728      0.68516      .   S
    C278   O729      0.46556      .   S
    C301   O729      0.46556      .   S
    C276   O730      0.68516      .   S
    C207   O730      0.68516      .   S
    C276   O731      0.46556      .   S
    C299   O731      0.46556      .   S
    C209   O732      0.75322      .   S
    C140   O732      0.75322      .   S
    C207   O733      0.75322      .   S
    C138   O733      0.75322      .   S
    C252   O734      0.69736      .   S
    C367   O734      0.69736      .   S
    C252   O735      0.73674      .   S
    C229   O735      0.73674      .   S
    C254   O736      0.69736      .   S
    C369   O736      0.69736      .   S
    C254   O737      0.73674      .   S
    C231   O737      0.73674      .   S
    C367   O738      0.46465      .   S
    C390   O738      0.46465      .   S
    C369   O739      0.46465      .   S
    C392   O739      0.46465      .   S
    C341   O740      0.68609      .   S
    C272   O740      0.68609      .   S
    C341   O741      0.68991      .   S
    C364   O741      0.68991      .   S
    C14    O742      0.68609      .   S
    C11    O742      0.68609      .   S
    C14    O743      0.68991      .   S
    C15    O743      0.68991      .   S
    C12    O744      0.46556      .   S
    C11    O744      0.46556      .   S
    C295   O745      0.46556      .   S
    C272   O745      0.46556      .   S
    C387   O746      0.46465      .   S
    C364   O746      0.46465      .   S
    C16    O747      0.46465      .   S
    C15    O747      0.46465      .   S
    C138   O748      0.63293      .   S
    C92    O748      0.63293      .   S
    C138   O749      0.63198      .   S
    C46    O749      0.63198      .   S
    C140   O750      0.63293      .   S
    C94    O750      0.63293      .   S
    C140   O751      0.63198      .   S
    C48    O751      0.63198      .   S
    C92    O752      0.99646      .   S
    C33    O752      0.99646      .   S
    C94    O753      0.99646      .   S
    C32    O753      0.99646      .   S
    C11    O754      0.68516      .   S
    C8     O754      0.68516      .   S
    C272   O755      0.68516      .   S
    C203   O755      0.68516      .   S
    C430   O756      1.11642      .   S
    C32    O756      1.11642      .   S
    C431   O757      1.11642      .   S
    C33    O757      1.11642      .   S
    C364   O758      0.69736      .   S
    C249   O758      0.69736      .   S
    C15    O759      0.69736      .   S
    C10    O759      0.69736      .   S
    C229   O760      0.62169      .   S
    C68    O760      0.62169      .   S
    C229   O761      0.63127      .   S
    C114   O761      0.63127      .   S
    C231   O762      0.62169      .   S
    C70    O762      0.62169      .   S
    C231   O763      0.63127      .   S
    C116   O763      0.63127      .   S
    C68    O764      0.99516      .   S
    C22    O764      0.99516      .   S
    C70    O765      0.99516      .   S
    C24    O765      0.99516      .   S
    C420   O766      1.11642      .   S
    C22    O766      1.11642      .   S
    C422   O767      1.11642      .   S
    C24    O767      1.11642      .   S
    C46    O768      0.99181      .   S
    C41    O768      0.99181      .   S
    C48    O769      0.99181      .   S
    C38    O769      0.99181      .   S
    C42    O770      0.99181      .   S
    C33    O770      0.99181      .   S
    C42    O771      0.63198      .   S
    C134   O771      0.63198      .   S
    C1     O772      0.99181      .   S
    C32    O772      0.99181      .   S
    C1     O773      0.63198      .   S
    C5     O773      0.63198      .   S
    C203   O774      0.75322      .   S
    C134   O774      0.75322      .   S
    C203   O775      0.69251      .   S
    C157   O775      0.69251      .   S
    C8     O776      0.75322      .   S
    C5     O776      0.75322      .   S
    C8     O777      0.69251      .   S
    C6     O777      0.69251      .   S
    C114   O778      1.00174      .   S
    C28    O778      1.00174      .   S
    C116   O779      1.00174      .   S
    C27    O779      1.00174      .   S
    C249   O780      0.69470      .   S
    C157   O780      0.69470      .   S
    C249   O781      0.73674      .   S
    C226   O781      0.73674      .   S
    C10    O782      0.69470      .   S
    C6     O782      0.69470      .   S
    C10    O783      0.73674      .   S
    C9     O783      0.73674      .   S
    C111   O784      1.00174      .   S
    C22    O784      1.00174      .   S
    C111   O785      0.63127      .   S
    C226   O785      0.63127      .   S
    C4     O786      1.00174      .   S
    C24    O786      1.00174      .   S
    C4     O787      0.63127      .   S
    C9     O787      0.63127      .   S
    C32    O788      1.00174      .   S
    C130   O788      1.00174      .   S
    C32    O789      0.99516      .   S
    C78    O789      0.99516      .   S
    C32    O790      0.93122      .   S
    C415   O790      0.93122      .   S
    C33    O791      1.00174      .   S
    C133   O791      1.00174      .   S
    C33    O792      0.99516      .   S
    C79    O792      0.99516      .   S
    C130   O793      0.63127      .   S
    C245   O793      0.63127      .   S
    C133   O794      0.63127      .   S
    C248   O794      0.63127      .   S
    C24    O795      0.99181      .   S
    C61    O795      0.99181      .   S
    C24    O796      0.99646      .   S
    C102   O796      0.99646      .   S
    C22    O797      0.99181      .   S
    C64    O797      0.99181      .   S
    C22    O798      0.99646      .   S
    C101   O798      0.99646      .   S
    C409   O799      0.46465      .   S
    C386   O799      0.46465      .   S
    C406   O800      0.46465      .   S
    C383   O800      0.46465      .   S
    C134   O801      0.63293      .   S
    C88    O801      0.63293      .   S
    C5     O802      0.63293      .   S
    C3     O802      0.63293      .   S
    C337   O803      0.60534      .   S
    C340   O803      0.60534  1_665   S
    C337   O804      0.72324      .   S
    C360   O804      0.72324      .   S
    C340   O805      0.72324      .   S
    C363   O805      0.72324      .   S
    C386   O806      0.68991      .   S
    C363   O806      0.68991      .   S
    C386   O807      0.69736      .   S
    C271   O807      0.69736      .   S
    C383   O808      0.68991      .   S
    C360   O808      0.68991      .   S
    C383   O809      0.69736      .   S
    C268   O809      0.69736      .   S
    C360   O810      0.68609  1_545   S
    C291   O810      0.68609      .   S
    C61    O811      0.63198      .   S
    C153   O811      0.63198      .   S
    C64    O812      0.63198      .   S
    C156   O812      0.63198      .   S
    C363   O813      0.68609  1_565   S
    C294   O813      0.68609      .   S
    C157   O814      0.46536      .   S
    C180   O814      0.46536      .   S
    C6     O815      0.46536      .   S
    C7     O815      0.46536      .   S
    C317   O816      0.46556      .   S
    C294   O816      0.46556      .   S
    C314   O817      0.46556      .   S
    C291   O817      0.46556      .   S
    C248   O818      0.73674      .   S
    C271   O818      0.73674      .   S
    C248   O819      0.62169      .   S
    C87    O819      0.62169      .   S
    C245   O820      0.73674      .   S
    C268   O820      0.73674      .   S
    C245   O821      0.62169      .   S
    C84    O821      0.62169      .   S
    C291   O822      0.68516      .   S
    C222   O822      0.68516      .   S
    C294   O823      0.68516      .   S
    C225   O823      0.68516      .   S
    C271   O824      0.69470      .   S
    C179   O824      0.69470      .   S
    C268   O825      0.69470      .   S
    C176   O825      0.69470      .   S
    C226   O826      0.62169      .   S
    C65    O826      0.62169      .   S
    C9     O827      0.62169      .   S
    C2     O827      0.62169      .   S
    C222   O828      0.69251      .   S
    C176   O828      0.69251  1_545   S
    C222   O829      0.75322      .   S
    C153   O829      0.75322      .   S
    C225   O830      0.69251      .   S
    C179   O830      0.69251  1_565   S
    C225   O831      0.75322      .   S
    C156   O831      0.75322      .   S
    C176   O832      0.46536      .   S
    C199   O832      0.46536      .   S
    C179   O833      0.46536      .   S
    C202   O833      0.46536      .   S
    C156   O834      0.63293      .   S
    C110   O834      0.63293      .   S
    C153   O835      0.63293      .   S
    C107   O835      0.63293      .   S
    C87    O836      0.99516      .   S
    C41    O836      0.99516      .   S
    C84    O837      0.99516      .   S
    C38    O837      0.99516      .   S
    C78    O838      0.62169      .   S
    C239   O838      0.62169      .   S
    C79    O839      0.62169      .   S
    C240   O839      0.62169      .   S
    C436   O840      1.11642      .   S
    C38    O840      1.11642      .   S
    C439   O841      1.11642      .   S
    C41    O841      1.11642      .   S
    C41    O842      0.93122      .   S
    C416   O842      0.93122      .   S
    C41    O843      0.99646      .   S
    C96    O843      0.99646      .   S
    C41    O844      1.00174      .   S
    C129   O844      1.00174      .   S
    C38    O845      0.99646      .   S
    C97    O845      0.99646      .   S
    C38    O846      1.00174      .   S
    C127   O846      1.00174      .   S
    C416   O847      0.93122      .   S
    C37    O847      0.93122      .   S
    C415   O848      0.93122      .   S
    C35    O848      0.93122      .   S
    C107   O849      0.99646      .   S
    C27    O849      0.99646      .   S
    C110   O850      0.99646      .   S
    C28    O850      0.99646      .   S
    C102   O851      0.63293      .   S
    C148   O851      0.63293      .   S
    C101   O852      0.63293      .   S
    C147   O852      0.63293      .   S
    C3     O853      0.99646      .   S
    C35    O853      0.99646      .   S
    C88    O854      0.99646      .   S
    C37    O854      0.99646      .   S
    C193   O855      0.46536      .   S
    C170   O855      0.46536      .   S
    C194   O856      0.46536      .   S
    C171   O856      0.46536      .   S
    C96    O857      0.63293      .   S
    C142   O857      0.63293      .   S
    C97    O858      0.63293      .   S
    C143   O858      0.63293      .   S
    C410   O859      0.93122      .   S
    C28    O859      0.93122      .   S
    C410   O860      0.93122      .   S
    C19    O860      0.93122      .   S
    C17    O861      0.93122      .   S
    C27    O861      0.93122      .   S
    C17    O862      0.93122      .   S
    C0     O862      0.93122      .   S
    C27    O863      1.11642      .   S
    C425   O863      1.11642      .   S
    C27    O864      0.99516      .   S
    C73    O864      0.99516      .   S
    C27    O865      0.99181      .   S
    C59    O865      0.99181      .   S
    C28    O866      1.11642      .   S
    C426   O866      1.11642      .   S
    C28    O867      0.99516      .   S
    C74    O867      0.99516      .   S
    C28    O868      0.99181      .   S
    C57    O868      0.99181      .   S
    C2     O869      0.99516      .   S
    C0     O869      0.99516      .   S
    C65    O870      0.99516      .   S
    C19    O870      0.99516      .   S
    C73    O871      0.62169      .   S
    C234   O871      0.62169      .   S
    C74    O872      0.62169      .   S
    C235   O872      0.62169      .   S
    C189   O873      0.46536      .   S
    C166   O873      0.46536      .   S
    C188   O874      0.46536      .   S
    C165   O874      0.46536      .   S
    C143   O875      0.75322      .   S
    C212   O875      0.75322      .   S
    C143   O876      0.63198      .   S
    C51    O876      0.63198      .   S
    C142   O877      0.75322      .   S
    C211   O877      0.75322      .   S
    C142   O878      0.63198      .   S
    C50    O878      0.63198      .   S
    C166   O879      0.69251      .   S
    C212   O879      0.69251      .   S
    C166   O880      0.69470      .   S
    C258   O880      0.69470      .   S
    C165   O881      0.69251      .   S
    C211   O881      0.69251      .   S
    C165   O882      0.69470      .   S
    C257   O882      0.69470      .   S
    C211   O883      0.68516      .   S
    C280   O883      0.68516      .   S
    C212   O884      0.68516      .   S
    C281   O884      0.68516      .   S
    C239   O885      0.63127      .   S
    C124   O885      0.63127      .   S
    C239   O886      0.73674      .   S
    C262   O886      0.73674      .   S
    C240   O887      0.63127      .   S
    C125   O887      0.63127      .   S
    C240   O888      0.73674      .   S
    C263   O888      0.73674      .   S
    C257   O889      0.73674      .   S
    C234   O889      0.73674      .   S
    C257   O890      0.69736      .   S
    C372   O890      0.69736      .   S
    C258   O891      0.73674      .   S
    C235   O891      0.73674      .   S
    C258   O892      0.69736      .   S
    C373   O892      0.69736      .   S
    C280   O893      0.46556      .   S
    C303   O893      0.46556      .   S
    C280   O894      0.68609      .   S
    C349   O894      0.68609      .   S
    C281   O895      0.46556      .   S
    C304   O895      0.46556      .   S
    C281   O896      0.68609      .   S
    C350   O896      0.68609      .   S
    C235   O897      0.63127      .   S
    C120   O897      0.63127      .   S
    C234   O898      0.63127      .   S
    C119   O898      0.63127      .   S
    C170   O899      0.69470      .   S
    C262   O899      0.69470      .   S
    C170   O900      0.69251  1_455   S
    C216   O900      0.69251      .   S
    C171   O901      0.69470      .   S
    C263   O901      0.69470      .   S
    C171   O902      0.69251  1_655   S
    C217   O902      0.69251      .   S
    C350   O903      0.68991      .   S
    C373   O903      0.68991      .   S
    C350   O904      0.72324      .   S
    C327   O904      0.72324      .   S
    C349   O905      0.68991      .   S
    C372   O905      0.68991      .   S
    C349   O906      0.72324      .   S
    C326   O906      0.72324      .   S
    C50    O907      0.99181      .   S
    C37    O907      0.99181      .   S
    C51    O908      0.99181      .   S
    C35    O908      0.99181      .   S
    C372   O909      0.46465      .   S
    C395   O909      0.46465      .   S
    C373   O910      0.46465      .   S
    C396   O910      0.46465      .   S
    C326   O911      0.60534      .   S
    C327   O911      0.60534      .   S
    C148   O912      0.75322      .   S
    C217   O912      0.75322      .   S
    C148   O913      0.63198      .   S
    C56    O913      0.63198      .   S
    C147   O914      0.75322      .   S
    C216   O914      0.75322      .   S
    C147   O915      0.63198      .   S
    C55    O915      0.63198      .   S
    C35    O916      1.00174      .   S
    C124   O916      1.00174      .   S
    C35    O917      1.11642      .   S
    C433   O917      1.11642      .   S
    C35    O918      0.99516      .   S
    C81    O918      0.99516      .   S
    C37    O919      1.00174      .   S
    C125   O919      1.00174      .   S
    C37    O920      1.11642      .   S
    C435   O920      1.11642      .   S
    C37    O921      0.99516      .   S
    C83    O921      0.99516      .   S
    C120   O922      1.00174      .   S
    C19    O922      1.00174      .   S
    C119   O923      1.00174      .   S
    C0     O923      1.00174      .   S
    C19    O924      0.99181      .   S
    C55    O924      0.99181      .   S
    C19    O925      1.11642      .   S
    C417   O925      1.11642      .   S
    C19    O926      0.99646      .   S
    C103   O926      0.99646      .   S
    C0     O927      0.99181      .   S
    C56    O927      0.99181      .   S
    C0     O928      1.11642      .   S
    C18    O928      1.11642      .   S
    C0     O929      0.99646      .   S
    C105   O929      0.99646      .   S
    C263   O930      0.69736      .   S
    C378   O930      0.69736      .   S
    C262   O931      0.69736      .   S
    C377   O931      0.69736      .   S
    C129   O932      0.63127      .   S
    C244   O932      0.63127      .   S
    C127   O933      0.63127      .   S
    C242   O933      0.63127      .   S
    C216   O934      0.68516      .   S
    C285   O934      0.68516      .   S
    C217   O935      0.68516      .   S
    C286   O935      0.68516      .   S
    C59    O936      0.63198      .   S
    C151   O936      0.63198      .   S
    C57    O937      0.63198      .   S
    C149   O937      0.63198      .   S
    C81    O938      0.62169      .   S
    C242   O938      0.62169      .   S
    C83    O939      0.62169      .   S
    C244   O939      0.62169      .   S
    C242   O940      0.73674      .   S
    C265   O940      0.73674      .   S
    C244   O941      0.73674      .   S
    C267   O941      0.73674      .   S
    C378   O942      0.46465      .   S
    C401   O942      0.46465      .   S
    C378   O943      0.68991      .   S
    C355   O943      0.68991      .   S
    C377   O944      0.46465      .   S
    C400   O944      0.46465      .   S
    C377   O945      0.68991      .   S
    C354   O945      0.68991      .   S
    C285   O946      0.46556      .   S
    C308   O946      0.46556      .   S
    C285   O947      0.68609      .   S
    C354   O947      0.68609  1_455   S
    C286   O948      0.46556      .   S
    C309   O948      0.46556      .   S
    C286   O949      0.68609      .   S
    C355   O949      0.68609  1_655   S
    C103   O950      0.63293      .   S
    C149   O950      0.63293      .   S
    C105   O951      0.63293      .   S
    C151   O951      0.63293      .   S
    C403   O952      0.46465      .   S
    C380   O952      0.46465      .   S
    C405   O953      0.46465      .   S
    C382   O953      0.46465      .   S
    C149   O954      0.75322      .   S
    C218   O954      0.75322      .   S
    C151   O955      0.75322      .   S
    C220   O955      0.75322      .   S
    C354   O956      0.72324      .   S
    C331   O956      0.72324      .   S
    C355   O957      0.72324      .   S
    C332   O957      0.72324      .   S
    C310   O958      0.46556      .   S
    C287   O958      0.46556      .   S
    C312   O959      0.46556      .   S
    C289   O959      0.46556      .   S
    C380   O960      0.69736      .   S
    C265   O960      0.69736      .   S
    C380   O961      0.68991      .   S
    C357   O961      0.68991      .   S
    C382   O962      0.69736      .   S
    C267   O962      0.69736      .   S
    C382   O963      0.68991      .   S
    C359   O963      0.68991      .   S
    C265   O964      0.69470      .   S
    C173   O964      0.69470      .   S
    C267   O965      0.69470      .   S
    C175   O965      0.69470      .   S
    C218   O966      0.68516      .   S
    C287   O966      0.68516      .   S
    C220   O967      0.68516      .   S
    C289   O967      0.68516      .   S
    C336   O968      0.72324      .   S
    C359   O968      0.72324      .   S
    C334   O969      0.72324      .   S
    C357   O969      0.72324      .   S
    C173   O970      0.46536      .   S
    C196   O970      0.46536      .   S
    C175   O971      0.46536      .   S
    C198   O971      0.46536      .   S
    C17    O972      0.93122      .   S
    C24    O972      0.93122      .   S
    C410   O973      0.93122      .   S
    C22    O973      0.93122      .   S
    C411   O974      0.93122      .   S
    C20    O974      0.93122      .   S
    C412   O975      0.93122      .   S
    C29    O975      0.93122      .   S
    C413   O976      0.93122      .   S
    C39    O976      0.93122      .   S
    C414   O977      0.93122      .   S
    C31    O977      0.93122      .   S
    C415   O978      0.93122      .   S
    C38    O978      0.93122      .   S
    C416   O979      0.93122      .   S
    C33    O979      0.93122      .   S
